10
Lattice="16.28999089631971 0.0 0.0 0.0 16.28999089631971 0.0 0.0 0.0 34.433804113860816" Properties=species:S:1:pos:R:3:initial_magmoms:R:1 pbc="T T T"
Si      -1.28834352       1.40144499      -1.34198940       0.00000000
Si       1.32861240       1.35832536       1.37968410       0.00000000
Si      -1.38577401      -1.35174257       1.37641289       0.00000000
Si       1.59700644      -1.23219026      -1.56357449       0.00000000
Si      -2.36125179      -0.30336867      -2.64947473       0.00000000
Si       2.67125049      -2.69209873       0.01765078       0.00000000
Si       2.69990460       2.71700910      -0.00047174       0.00000000
Si       2.68457571       0.01060479       2.73995786       0.00000000
Si      -0.03054375      -2.70700745       2.73858051       0.00000000
Si      -0.02919168       2.72683197       2.73675552       0.00000000
