10
Lattice="16.28999089631971 0.0 0.0 0.0 16.28999089631971 0.0 0.0 0.0 34.433804113860816" Properties=species:S:1:pos:R:3:initial_magmoms:R:1 pbc="T T T"
Si      -1.26868149       1.43697348       1.33588084       0.00000000
Si       1.47652560      -1.29476178       1.31685271       0.00000000
Si      -1.13414238      -1.42871445      -1.57035593       0.00000000
Si       0.79612488       1.63338201      -1.58702190       0.00000000
Si       0.54216378      -0.35438895      -2.97825167       0.00000000
Si      -2.51172252      -2.61032589      -0.02466495       0.00000000
Si      -2.61697221       0.07568334       2.69735289       0.00000000
Si       0.10523340      -2.65344552       2.69700855       0.00000000
Si       2.69842221       2.66175342      -0.17568481       0.00000000
Si       0.10500534       2.78506872       2.69611327       0.00000000
