10
Lattice="16.28999089631971 0.0 0.0 0.0 16.28999089631971 0.0 0.0 0.0 34.433804113860816" Properties=species:S:1:pos:R:3:initial_magmoms:R:1 pbc="T T T"
Si       1.26868149      -1.43697348      -1.33588084       0.00000000
Si      -1.34829072      -1.36129014       1.36147205       0.00000000
Si       1.37368683       1.34809524       1.36023244       0.00000000
Si      -1.35003375       1.45647261      -1.34465113       0.00000000
Si       2.06480637       0.19640853      -2.92290274       0.00000000
Si      -2.70604593       2.71220355       0.03427887       0.00000000
Si      -2.70117522      -2.71981098      -0.01747517       0.00000000
Si      -2.70125667      -0.00887805       2.72064393       0.00000000
Si       2.73049722       2.69404020      -0.01805021       0.00000000
Si       0.01158219       2.70545949       2.71981752       0.00000000
