10
Lattice="16.28999089631971 0.0 0.0 0.0 16.28999089631971 0.0 0.0 0.0 34.433804113860816" Properties=species:S:1:pos:R:3:initial_magmoms:R:1 pbc="T T T"
Si      -1.24292700       1.43112537       1.35235054       0.00000000
Si       1.17087633       1.54178334      -1.37143600       0.00000000
Si       1.47768219      -1.30860828       1.32930742       0.00000000
Si      -1.78815330      -0.80104446      -1.36383916       0.00000000
Si      -2.60284878      -2.54617587       0.00270650       0.00000000
Si      -2.59836903       0.06309117       2.71247967       0.00000000
Si       0.12087180      -2.65455324       2.70759007       0.00000000
Si      -2.71120986       2.68770339      -0.05662642       0.00000000
Si       2.76545556       2.73018771      -0.00779237       0.00000000
Si       0.11523546       2.78104509       2.71203203       0.00000000
