10
Lattice="16.28999089631971 0.0 0.0 0.0 16.28999089631971 0.0 0.0 0.0 34.433804113860816" Properties=species:S:1:pos:R:3:initial_magmoms:R:1 pbc="T T T"
Si      -1.35646830      -1.35791811       1.35641717       0.00000000
Si      -1.35736425       1.35726651      -1.35769122       0.00000000
Si       1.35829278      -1.35801585      -1.35765679       0.00000000
Si       1.35956340       1.35801585       1.35755349       0.00000000
Si      -2.71446786       2.71437012      -0.00041321       0.00000000
Si      -0.00197109       2.71388142      -2.71527914       0.00000000
Si      -2.71480995      -0.00045612      -2.71445273       0.00000000
Si      -0.00379557       2.71404432       2.71589895       0.00000000
Si      -2.71479366      -2.71533123      -0.00006887       0.00000000
Si       0.00255753      -2.71349046      -2.71689753       0.00000000
