10
Lattice="16.28999089631971 0.0 0.0 0.0 16.28999089631971 0.0 0.0 0.0 34.433804113860816" Properties=species:S:1:pos:R:3:initial_magmoms:R:1 pbc="T T T"
Si      -0.04683375      -0.80210331       2.23909380       0.00000000
Si       0.72119088       2.27198259       0.33927646       0.00000000
Si       1.80898821      -1.73538999      -0.25487916       0.00000000
Si      -1.74679299      -0.85898799      -1.63412596       0.00000000
Si       1.33125138       2.37781872      -1.87895044       0.00000000
Si       0.17770761      -3.17384586       1.49187983       0.00000000
Si      -2.33318412      -1.01727792       2.70622305       0.00000000
Si       2.21053671       0.46014363      -3.05111222       0.00000000
Si      -0.50940459      -2.27056536      -3.06085699       0.00000000
Si       3.24135162      -1.48983453       1.80329933       0.00000000
