10
Lattice="16.28999089631971 0.0 0.0 0.0 16.28999089631971 0.0 0.0 0.0 34.433804113860816" Properties=species:S:1:pos:R:3:initial_magmoms:R:1 pbc="T T T"
Si      -1.98024498      -1.17301032       0.33500667       0.00000000
Si       0.04812066      -0.09819612      -2.37424655       0.00000000
Si       1.46559501      -1.53583749       1.10088377       0.00000000
Si      -0.22030596       2.34955557       0.42453461       0.00000000
Si       3.30374232      -0.10803528       1.17219621       0.00000000
Si      -1.92463092       2.82725982      -1.21269039       0.00000000
Si      -1.11615822      -2.17474758      -2.80597783       0.00000000
Si      -1.62135999      -3.27673350      -0.75974788       0.00000000
Si      -2.16849222      -1.37707515       2.71720743       0.00000000
Si       1.81519470       3.33555669      -0.49409093       0.00000000
