10
Lattice="16.28999089631971 0.0 0.0 0.0 16.28999089631971 0.0 0.0 0.0 34.433804113860816" Properties=species:S:1:pos:R:3:initial_magmoms:R:1 pbc="T T T"
Si       1.85544729      -0.79570134       1.18128674       0.00000000
Si       1.35387819       1.34873055      -1.36688505       0.00000000
Si      -1.35091341      -1.38059379      -1.35992942       0.00000000
Si      -1.42783479       1.31294142       1.41615985       0.00000000
Si       1.24538679      -0.90153747       3.39951364       0.00000000
Si       2.71111212       2.68232836      -0.00068868       0.00000000
Si       0.00622278       2.69577901      -2.72030648       0.00000000
Si      -2.72695903       2.69312700       0.00361555       0.00000000
Si      -2.70988223      -0.01516599      -2.71758621       0.00000000
Si      -2.69364924      -2.73865851       0.00915940       0.00000000
