10
Lattice="16.28999089631971 0.0 0.0 0.0 16.28999089631971 0.0 0.0 0.0 34.433804113860816" Properties=species:S:1:pos:R:3:initial_magmoms:R:1 pbc="T T T"
Si       0.61006050       0.10583613      -2.21822690       0.00000000
Si       2.27398626       0.23467374       0.61808713       0.00000000
Si      -0.72119088      -2.27198259      -0.33927646       0.00000000
Si      -1.08600543       2.13770412       1.01724401       0.00000000
Si       2.05299612       1.24356231       2.73700688       0.00000000
Si      -0.76802463      -3.07408590       1.89981734       0.00000000
Si      -1.24538679       0.90153747      -3.39951364       0.00000000
Si       2.54032776       1.94634549      -2.04619552       0.00000000
Si      -2.67322158       2.21447889      -1.98335379       0.00000000
Si       0.30323835       2.79299285       2.90077415       0.00000000
