10
Lattice="16.28999089631971 0.0 0.0 0.0 16.28999089631971 0.0 0.0 0.0 34.433804113860816" Properties=species:S:1:pos:R:3:initial_magmoms:R:1 pbc="T T T"
Si       1.61187921       1.18303030       1.23421842       0.00000000
Si      -1.14780969      -1.66447866       1.23029985       0.00000000
Si       1.19210220      -1.10723034      -1.82134407       0.00000000
Si      -1.50241041       1.94786861      -0.15312863       0.00000000
Si      -2.44952730      -0.24816704       2.58454424       0.00000000
Si      -0.87969258      -1.70640912      -3.02480620       0.00000000
Si       0.26697681       2.47846648       2.60403034       0.00000000
Si      -3.52377135       1.21174142       1.00331897       0.00000000
Si      -2.32630974       2.01024301      -2.39411629       0.00000000
Si       2.46892869       3.06127381      -0.19782373       0.00000000
