10
Lattice="16.28999089631971 0.0 0.0 0.0 16.28999089631971 0.0 0.0 0.0 34.433804113860816" Properties=species:S:1:pos:R:3:initial_magmoms:R:1 pbc="T T T"
Si       0.55214955      -2.26643096      -0.37229850       0.00000000
Si       0.41938605      -0.05528826       2.34838675       0.00000000
Si       1.57714893       1.80867870      -0.28407904       0.00000000
Si      -2.37293172       0.38418336      -0.28697148       0.00000000
Si       1.16216118       0.87140097      -2.34453016       0.00000000
Si      -1.34972424      -2.93604770      -1.57858420       0.00000000
Si       0.12803940       3.68189838      -0.07141575       0.00000000
Si      -3.16667826      -1.88079453      -0.52725070       0.00000000
Si       1.34408790      -1.15556373      -3.42675080       0.00000000
Si       2.39249601      -2.45285860      -1.81418042       0.00000000
