10
Lattice="16.28999089631971 0.0 0.0 0.0 16.28999089631971 0.0 0.0 0.0 34.433804113860816" Properties=species:S:1:pos:R:3:initial_magmoms:R:1 pbc="T T T"
Si      -0.74331270       1.11460252      -1.94206764       0.00000000
Si       1.19910690      -1.86379984      -0.82475894       0.00000000
Si      -1.71287721      -1.08287353       1.23183560       0.00000000
Si       0.88182657       1.76970813       1.33038520       0.00000000
Si      -0.87607620       3.32574522       0.77861761       0.00000000
Si      -0.48479040      -1.24228747       3.28595090       0.00000000
Si      -0.16889472      -2.46705112      -2.66941329       0.00000000
Si       0.13204674       1.08055642       3.48490953       0.00000000
Si       1.09703376       0.92817488      -3.38394956       0.00000000
Si      -2.67718005      -2.73984346      -0.15257627       0.00000000
