10
Lattice="16.28999089631971 0.0 0.0 0.0 16.28999089631971 0.0 0.0 0.0 34.433804113860816" Properties=species:S:1:pos:R:3:initial_magmoms:R:1 pbc="T T T"
Si       1.14034887      -1.43871651       1.53808313       0.00000000
Si      -0.62903835      -1.96931439      -1.21907584       0.00000000
Si      -1.54750113       1.24375779       1.50047451       0.00000000
Si       1.74364902       1.01867886      -1.51117796       0.00000000
Si       3.34230075      -0.85590918      -1.26377094       0.00000000
Si       2.48525127      -2.73415270       0.16827121       0.00000000
Si       2.55322944       2.73717612      -0.01596008       0.00000000
Si      -2.65039929      -2.70544157      -0.06262824       0.00000000
Si       2.50696584      -0.10705788       2.87980395       0.00000000
Si      -0.20176794       2.60864802       2.88125017       0.00000000
