10
Lattice="16.28999089631971 0.0 0.0 0.0 16.28999089631971 0.0 0.0 0.0 34.433804113860816" Properties=species:S:1:pos:R:3:initial_magmoms:R:1 pbc="T T T"
Si       1.35695700       1.35777150       1.35665821       0.00000000
Si      -1.35894438      -1.35597960       1.35720915       0.00000000
Si      -1.35749457       1.35777150      -1.35714028       0.00000000
Si       1.35778779      -1.35795069      -1.35724358       0.00000000
Si       2.71096551       0.00188964       2.71407396       0.00000000
Si       0.00053757      -2.71393029      -2.71317868       0.00000000
Si      -0.00013032       2.71420722      -2.71490037       0.00000000
Si       2.71358820      -0.00011403      -2.71558905       0.00000000
Si       2.71458189      -2.71467963      -0.00017217       0.00000000
Si      -2.71322982       0.00229689      -2.71638102       0.00000000
