10
Lattice="16.28999089631971 0.0 0.0 0.0 16.28999089631971 0.0 0.0 0.0 34.433804113860816" Properties=species:S:1:pos:R:3:initial_magmoms:R:1 pbc="T T T"
Si       1.28295153      -1.47214359       1.29753533       0.00000000
Si       1.35917244       1.33928235      -1.37256663       0.00000000
Si      -1.34838846      -1.37648871      -1.36860674       0.00000000
Si      -1.38217392       1.27540926       1.50878684       0.00000000
Si      -0.48050613      -2.51021732       2.63484173       0.00000000
Si      -2.16116172      -0.71737902       3.02380620       0.00000000
Si      -2.71125873       2.68569972       0.01811219       0.00000000
Si       0.10985976       2.73287556       2.67295997       0.00000000
Si       2.72407896       2.68912062      -0.01628720       0.00000000
Si       0.00516393       2.69516421      -2.72998238       0.00000000
