10
Lattice="16.28999089631971 0.0 0.0 0.0 16.28999089631971 0.0 0.0 0.0 34.433804113860816" Properties=species:S:1:pos:R:3:initial_magmoms:R:1 pbc="T T T"
Si      -1.35400851       1.35588186      -1.35741575       0.00000000
Si       1.36490652       1.34983827       1.35627943       0.00000000
Si      -1.35917244      -1.33928235       1.37256663       0.00000000
Si       1.36221867      -1.35723393      -1.35610727       0.00000000
Si       2.58896970      -0.14765256       2.71638102       0.00000000
Si      -2.70756090      -2.71577106       0.00395989       0.00000000
Si      -2.70989037       2.71487511       0.00199716       0.00000000
Si      -2.71096551      -0.00188964      -2.71407396       0.00000000
Si       0.00343719       2.71368594      -2.71386735       0.00000000
Si       0.00361638      -2.71656927      -2.71424613       0.00000000
