10
Lattice="16.28999089631971 0.0 0.0 0.0 16.28999089631971 0.0 0.0 0.0 34.433804113860816" Properties=species:S:1:pos:R:3:initial_magmoms:R:1 pbc="T T T"
Si      -1.74866634      -0.95063553       1.18665842       0.00000000
Si      -0.72721818       1.61596800      -1.53778012       0.00000000
Si       1.16343180      -1.21717251      -1.69941248       0.00000000
Si       0.04155579      -0.61664166       2.74568421       0.00000000
Si       1.28541132       2.75385708      -0.75823279       0.00000000
Si      -0.38281500      -0.06589305      -3.19356495       0.00000000
Si       2.21356665       0.45856350       2.53360629       0.00000000
Si       3.26907720      -0.27090270      -1.25390768       0.00000000
Si       1.45811790      -3.49053975      -1.00822235       0.00000000
Si      -3.51098370       0.66886740       1.62200525       0.00000000
