10
Lattice="16.28999089631971 0.0 0.0 0.0 16.28999089631971 0.0 0.0 0.0 34.433804113860816" Properties=species:S:1:pos:R:3:initial_magmoms:R:1 pbc="T T T"
Si       0.02709027      -2.18515689      -0.90667700       0.00000000
Si      -1.55805705       1.16884008      -1.37036287       0.00000000
Si      -0.64712025      -0.70755615       2.19023220       0.00000000
Si       1.87074360       1.47685140       0.28476772       0.00000000
Si      -1.95576111      -3.02440140       0.26841165       0.00000000
Si      -0.26425638       1.55202975      -3.32647951       0.00000000
Si       1.18485315      -0.32118993      -3.53914280       0.00000000
Si       1.69132554       2.08973007       2.61583426       0.00000000
Si       1.15800723      -0.09524763       3.62185284       0.00000000
Si      -2.12361327       3.16785114      -0.24289619       0.00000000
