10
Lattice="16.28999089631971 0.0 0.0 0.0 16.28999089631971 0.0 0.0 0.0 34.433804113860816" Properties=species:S:1:pos:R:3:initial_magmoms:R:1 pbc="T T T"
Si      -2.13055837      -0.99697895       0.35222358       0.00000000
Si      -0.22325282       0.47501640      -2.33733350       0.00000000
Si       1.44424045       1.85145624       0.59439666       0.00000000
Si       1.89706987      -1.58575005       0.02482679       0.00000000
Si       1.50014773       0.43546428       2.67563827       0.00000000
Si       0.44121628      -3.13852004      -1.03236046       0.00000000
Si      -1.49393000      -2.30730650       2.31075058       0.00000000
Si       3.30323896      -0.69854778      -1.60895483       0.00000000
Si       1.75029697      -0.41101625      -3.32902761       0.00000000
Si       3.45915055       1.41151221      -0.63354792       0.00000000
