10
Lattice="16.28999089631971 0.0 0.0 0.0 16.28999089631971 0.0 0.0 0.0 34.433804113860816" Properties=species:S:1:pos:R:3:initial_magmoms:R:1 pbc="T T T"
Si       1.32783048      -1.36516716      -1.38269018       0.00000000
Si      -1.37160171       1.38849444      -1.36795250       0.00000000
Si       1.83347208       0.93807594       1.24688318       0.00000000
Si      -1.77315021      -0.80703918       1.42828056       0.00000000
Si      -0.34078680      -0.56148372       3.48645905       0.00000000
Si       0.75877191       1.58097708       3.21205591       0.00000000
Si      -2.75121810      -2.64018546       0.06390918       0.00000000
Si       2.68322364       0.01203831      -2.73318473       0.00000000
Si       2.75807619      -2.66041764      -0.02582537       0.00000000
Si      -0.02813283      -2.70203859      -2.73721349       0.00000000
