10
Lattice="16.28999089631971 0.0 0.0 0.0 16.28999089631971 0.0 0.0 0.0 34.433804113860816" Properties=species:S:1:pos:R:3:initial_magmoms:R:1 pbc="T T T"
Si      -1.07470017       0.64290114       1.96517273       0.00000000
Si       1.04682798       1.85192865      -1.10350074       0.00000000
Si      -1.83347208      -0.93807594      -1.24688318       0.00000000
Si       1.80794565      -1.74918762       0.00234150       0.00000000
Si      -2.17425888      -1.49955966       2.23957587       0.00000000
Si       2.23555815       0.44105175      -2.61201210       0.00000000
Si       1.26719910      -2.14164630       2.49476494       0.00000000
Si      -0.50564160      -2.30324310      -2.62957335       0.00000000
Si      -2.42043336       2.49693120       1.39364013       0.00000000
Si      -0.74543040      -3.27953538       1.71521761       0.00000000
