10
Lattice="16.28999089631971 0.0 0.0 0.0 16.28999089631971 0.0 0.0 0.0 34.433804113860816" Properties=species:S:1:pos:R:3:initial_magmoms:R:1 pbc="T T T"
Si      -0.15667722      -1.74573414       1.52596932       0.00000000
Si       0.50727060      -0.33603012      -2.25710269       0.00000000
Si       2.11317138       0.76276296       0.71749758       0.00000000
Si      -1.64522484       1.69785783      -0.14031783       0.00000000
Si       0.86306049       1.97065017      -2.65715485       0.00000000
Si       1.84759551      -2.79477756       0.89338555       0.00000000
Si       2.23106211       2.57390145      -0.81250050       0.00000000
Si      -0.68092200       3.35482776       1.24409404       0.00000000
Si      -1.50363216      -0.98217297      -3.26642692       0.00000000
Si      -1.39794264       2.59807581      -2.43168217       0.00000000
