10
Lattice="16.28999089631971 0.0 0.0 0.0 16.28999089631971 0.0 0.0 0.0 34.433804113860816" Properties=species:S:1:pos:R:3:initial_magmoms:R:1 pbc="T T T"
Si      -0.03816747      -0.67826673      -2.21829577       0.00000000
Si       0.15193683      -2.06975853       1.08893523       0.00000000
Si      -2.00427273       1.04904342       0.63258377       0.00000000
Si       1.69067394       1.62442251       0.23807545       0.00000000
Si      -1.84759551       2.79477756      -0.89338555       0.00000000
Si       0.26557587       3.55754052      -0.17588797       0.00000000
Si       2.25201105       1.25924958       2.54483172       0.00000000
Si      -0.02748123      -1.45687986       3.42000177       0.00000000
Si       2.37304575      -2.77096158       0.81590944       0.00000000
Si      -1.98306315      -1.99458018      -2.52231199       0.00000000
