10
Lattice="16.28999089631971 0.0 0.0 0.0 16.28999089631971 0.0 0.0 0.0 34.433804113860816" Properties=species:S:1:pos:R:3:initial_magmoms:R:1 pbc="T T T"
Si      -0.84071061       0.63122121      -2.18203695       0.00000000
Si       0.94420098       1.83075165       1.28019588       0.00000000
Si      -1.88502993      -1.06083738       1.23372743       0.00000000
Si       1.84902903      -1.67800032      -0.10175195       0.00000000
Si      -0.42394725      -2.30619159       2.72153374       0.00000000
Si       2.31335919       0.43930872       2.72816569       0.00000000
Si       0.99380403      -3.52393425       1.20983036       0.00000000
Si       2.08311633       3.30131511      -0.40173942       0.00000000
Si       3.67065828      -0.87151500       1.26042397       0.00000000
Si       2.33741952      -2.40787377      -2.33833208       0.00000000
