10
Lattice="16.28999089631971 0.0 0.0 0.0 16.28999089631971 0.0 0.0 0.0 34.433804113860816" Properties=species:S:1:pos:R:3:initial_magmoms:R:1 pbc="T T T"
Si       0.92914087       1.94121414      -0.98396062       0.00000000
Si      -1.32212802       1.38008880       1.45339659       0.00000000
Si       1.40980990      -1.32287832       1.45258739       0.00000000
Si      -1.31963565      -1.40722794      -1.51516540       0.00000000
Si      -2.64117819      -2.68224624      -0.05432280       0.00000000
Si      -2.65621386       2.81103498      -0.01480654       0.00000000
Si      -2.66437515       0.03070665       2.83205112       0.00000000
Si       0.05325201      -2.68571601       2.82571530       0.00000000
Si       2.86794410      -2.65036671       0.10951678       0.00000000
Si       0.05581117       2.74667319       2.82981292       0.00000000
