10
Lattice="16.28999089631971 0.0 0.0 0.0 16.28999089631971 0.0 0.0 0.0 34.433804113860816" Properties=species:S:1:pos:R:3:initial_magmoms:R:1 pbc="T T T"
Si      -1.35805488       1.35617508      -1.35755349       0.00000000
Si       1.35901190       1.35597960       1.35789782       0.00000000
Si      -1.35621411      -1.35912357       1.35776009       0.00000000
Si       1.35957228      -1.36024758      -1.36388931       0.00000000
Si      -2.71247064       2.71114470      -0.00013774       0.00000000
Si       0.00166469       2.71368594       2.71459046       0.00000000
Si      -2.71357836      -0.00159642       2.71486593       0.00000000
Si       2.71604872       2.71352304       0.00110188       0.00000000
Si      -2.71421367      -2.71580364       0.00065424       0.00000000
Si       2.71606501      -0.00135207       2.71548574       0.00000000
