10
Lattice="16.28999089631971 0.0 0.0 0.0 16.28999089631971 0.0 0.0 0.0 34.433804113860816" Properties=species:S:1:pos:R:3:initial_magmoms:R:1 pbc="T T T"
Si       1.17334005      -1.38294511      -1.50978542       0.00000000
Si      -1.16952426      -1.32674461       1.56436303       0.00000000
Si       1.83320234       1.18957888       0.97592342       0.00000000
Si      -1.60800219       1.40336884      -1.10639318       0.00000000
Si      -1.27203723       3.27292327       0.27584936       0.00000000
Si       1.07448581       3.39283396       0.67631472       0.00000000
Si      -1.26842085      -3.40233496       0.40049980       0.00000000
Si      -0.07410321      -0.28241647       3.66548050       0.00000000
Si      -0.26819856      -3.19585921      -1.80805120       0.00000000
Si       3.80675213       0.30354623      -0.01577069       0.00000000
