10
Lattice="16.28999089631971 0.0 0.0 0.0 16.28999089631971 0.0 0.0 0.0 34.433804113860816" Properties=species:S:1:pos:R:3:initial_magmoms:R:1 pbc="T T T"
Si       1.34420193       1.34242632       1.39067194       0.00000000
Si      -1.37075463      -1.37389860       1.38898468       0.00000000
Si       1.36739889      -1.37052657      -1.49570199       0.00000000
Si      -1.32449103       1.47033540      -1.50677935       0.00000000
Si      -0.53541972      -2.12274990      -2.75459021       0.00000000
Si      -2.13407145      -0.24816186      -3.00199723       0.00000000
Si       2.68644906       2.69180847       0.01201740       0.00000000
Si      -2.74224231       2.68807806       0.00492404       0.00000000
Si       2.69660824      -2.73675258      -0.00156330       0.00000000
Si      -2.73737160      -2.70555723       0.04726387       0.00000000
