10
Lattice="16.28999089631971 0.0 0.0 0.0 16.28999089631971 0.0 0.0 0.0 34.433804113860816" Properties=species:S:1:pos:R:3:initial_magmoms:R:1 pbc="T T T"
Si      -1.35658233      -1.35555606       1.35813886       0.00000000
Si       1.35736425      -1.35752715      -1.35710585       0.00000000
Si      -1.35749457       1.35755973      -1.35731245       0.00000000
Si       1.35975888       1.35690813       1.35734688       0.00000000
Si       2.71655711      -0.00017919       2.71097491       0.00000000
Si       0.00110772       2.71274112      -2.71500367       0.00000000
Si      -0.00063531      -2.71420722      -2.71421169       0.00000000
Si       2.71357836       0.00159642      -2.71486593       0.00000000
Si       2.71499892      -2.71494027       0.00058537       0.00000000
Si      -2.71518462      -2.71489140       0.00000000       0.00000000
