10
Lattice="16.28999089631971 0.0 0.0 0.0 16.28999089631971 0.0 0.0 0.0 34.433804113860816" Properties=species:S:1:pos:R:3:initial_magmoms:R:1 pbc="T T T"
Si      -1.25077878       1.46917881      -1.33351868       0.00000000
Si       1.46627497      -1.26830682      -1.32181118       0.00000000
Si       1.74640922       1.06150527       1.16555049       0.00000000
Si      -1.40991579      -1.42141653       1.43282582       0.00000000
Si       0.68456186       2.20317363       2.85683659       0.00000000
Si      -2.60082882       0.11349243      -2.68869623       0.00000000
Si       0.11411558      -2.60133381      -2.69461885       0.00000000
Si      -2.49334740       2.87487549       0.08890813       0.00000000
Si       2.88253898      -2.53635300       0.18528840       0.00000000
Si      -2.73227283      -2.74712931       0.02503339       0.00000000
