10
Lattice="16.28999089631971 0.0 0.0 0.0 16.28999089631971 0.0 0.0 0.0 34.433804113860816" Properties=species:S:1:pos:R:3:initial_magmoms:R:1 pbc="T T T"
Si      -0.32977476       2.32085259       0.15226637       0.00000000
Si       2.01260411      -0.53313912       1.14616424       0.00000000
Si       0.12339675      -0.33951618      -2.35971548       0.00000000
Si      -2.02339719      -1.12800105       0.74425266       0.00000000
Si      -2.11812354      -1.29635820      -2.35499805       0.00000000
Si       1.20609761      -0.91789263       3.33346957       0.00000000
Si       2.84968205       1.04901084      -2.10425095       0.00000000
Si      -1.30637655      -3.43029933       0.56023831       0.00000000
Si       2.85070832      -2.53822635       0.21097604       0.00000000
Si      -0.64666413       3.21214365      -2.03238756       0.00000000
