10
Lattice="16.28999089631971 0.0 0.0 0.0 16.28999089631971 0.0 0.0 0.0 34.433804113860816" Properties=species:S:1:pos:R:3:initial_magmoms:R:1 pbc="T T T"
Si      -1.35350765      -1.34249148       1.35648604       0.00000000
Si       1.35215939       1.33302699       1.37280767       0.00000000
Si       1.35311888      -1.35718506      -1.35314596       0.00000000
Si      -1.35679823       1.35708732      -1.35362803       0.00000000
Si      -0.11411558       2.60133381       2.69461885       0.00000000
Si       0.07158392      -2.59041951       2.76111056       0.00000000
Si       2.71308627       0.00042354      -2.71035510       0.00000000
Si      -0.00155819      -2.71476108      -2.71038954       0.00000000
Si      -0.00131406       2.71546155      -2.71125038       0.00000000
Si      -2.71655711       0.00017919      -2.71097491       0.00000000
