10
Lattice="16.28999089631971 0.0 0.0 0.0 16.28999089631971 0.0 0.0 0.0 34.433804113860816" Properties=species:S:1:pos:R:3:initial_magmoms:R:1 pbc="T T T"
Si      -0.65485800       0.63622224      -2.15366348       0.00000000
Si       0.99790164      -2.10251772       0.33459346       0.00000000
Si       1.70080210       1.66803084       0.56378499       0.00000000
Si      -2.22668010       0.25513398       1.14192888       0.00000000
Si      -1.18573281      -1.98589761       1.49019257       0.00000000
Si       1.52041316       0.64141875      -2.94436737       0.00000000
Si      -1.76860530       2.80500768      -1.48103318       0.00000000
Si       3.25388582      -1.50089544       0.74786821       0.00000000
Si       2.61989531       2.13436467      -1.53929521       0.00000000
Si       1.07569127      -3.13191540      -1.75505754       0.00000000
