10
Lattice="16.28999089631971 0.0 0.0 0.0 16.28999089631971 0.0 0.0 0.0 34.433804113860816" Properties=species:S:1:pos:R:3:initial_magmoms:R:1 pbc="T T T"
Si       1.35781170       1.35639937      -1.35710585       0.00000000
Si      -1.35762489       1.35733381       1.35751905       0.00000000
Si      -1.35602847      -1.35852084      -1.35806999       0.00000000
Si       1.35783782      -1.35812988       1.35741575       0.00000000
Si      -0.00100998       2.71245509       2.71452160       0.00000000
Si       0.00009774      -2.71301805       2.71576121       0.00000000
Si      -2.71521720      -0.00182448       2.71455603       0.00000000
Si       2.71552412       2.71427142      -0.00041321       0.00000000
Si      -2.71476108      -2.71518462      -0.00010330       0.00000000
Si      -2.71494027       2.71543779       0.00034434       0.00000000
