10
Lattice="16.28999089631971 0.0 0.0 0.0 16.28999089631971 0.0 0.0 0.0 34.433804113860816" Properties=species:S:1:pos:R:3:initial_magmoms:R:1 pbc="T T T"
Si      -0.15923475      -0.84486456      -2.18227799       0.00000000
Si       2.32859034       0.41474340      -0.01139760       0.00000000
Si      -0.28914750      -1.92322998       1.35975725       0.00000000
Si      -1.72524132       1.58778630       0.39843377       0.00000000
Si       1.26586332      -2.77798257      -1.76831456       0.00000000
Si       2.42748693       2.49033375       1.15246563       0.00000000
Si       1.82720043      -3.14315550       0.53844170       0.00000000
Si      -2.55780693      -2.54453058       0.81040003       0.00000000
Si      -2.95332813       1.74720024      -1.65568153       0.00000000
Si      -2.53403982       1.12013298       2.63477286       0.00000000
