10
Lattice="16.28999089631971 0.0 0.0 0.0 16.28999089631971 0.0 0.0 0.0 34.433804113860816" Properties=species:S:1:pos:R:3:initial_magmoms:R:1 pbc="T T T"
Si      -1.35844134       1.35387819      -1.35745018       0.00000000
Si       1.35696549       1.35674523       1.35762235       0.00000000
Si      -1.35849021      -1.35809730       1.35734688       0.00000000
Si       1.36001824      -1.35703845      -1.36030819       0.00000000
Si       2.70914626       0.00542457      -2.68577968       0.00000000
Si       2.71294183       2.71164969       0.00117075       0.00000000
Si      -2.71440465       2.71344159      -0.00075754       0.00000000
Si      -0.00053837       2.71383255       2.71472820       0.00000000
Si       2.71427761      -0.00083079       2.71462490       0.00000000
Si      -0.00044851      -2.71549413       2.71407396       0.00000000
