10
Lattice="16.28999089631971 0.0 0.0 0.0 16.28999089631971 0.0 0.0 0.0 34.433804113860816" Properties=species:S:1:pos:R:3:initial_magmoms:R:1 pbc="T T T"
Si       1.92813653      -1.20314682      -0.34399390       0.00000000
Si      -0.11852441       1.66731408       1.57965165       0.00000000
Si      -0.19655514       0.83678472      -2.19116192       0.00000000
Si      -1.91217300      -1.36454814       0.15267957       0.00000000
Si      -2.22906237      -0.47325708      -2.03197435       0.00000000
Si       3.19020428       0.79741179      -0.41723464       0.00000000
Si      -2.52985722       1.80094095       1.56945923       0.00000000
Si       1.99287299      -2.46420459       1.59011953       0.00000000
Si       1.26728381      -2.63638989      -2.10383774       0.00000000
Si      -3.11069346      -0.44264817       1.96444962       0.00000000
