10
Lattice="16.28999089631971 0.0 0.0 0.0 16.28999089631971 0.0 0.0 0.0 34.433804113860816" Properties=species:S:1:pos:R:3:initial_magmoms:R:1 pbc="T T T"
Si       0.66085272       1.43324307       1.75984384       0.00000000
Si      -0.25370046       1.92495672      -1.38871610       0.00000000
Si       1.80566505      -1.48779828      -0.61292206       0.00000000
Si      -2.72628530      -1.38852702      -0.25546454       0.00000000
Si       2.25719127      -0.23161122      -2.60305931       0.00000000
Si       2.03264991       2.14013133      -1.85584534       0.00000000
Si       0.59469903      -3.46659345      -0.01305042       0.00000000
Si      -1.26728381       2.63638989       2.10383774       0.00000000
Si      -2.84968205      -1.04901084       2.10425095       0.00000000
Si      -0.83707794      -1.58214996       3.25041519       0.00000000
