10
Lattice="16.28999089631971 0.0 0.0 0.0 16.28999089631971 0.0 0.0 0.0 34.433804113860816" Properties=species:S:1:pos:R:3:initial_magmoms:R:1 pbc="T T T"
Si      -0.06473646       1.26105777      -1.93411342       0.00000000
Si       2.14892793      -0.70219674       0.47687402       0.00000000
Si      -0.46674108       1.02957687       2.08255764       0.00000000
Si      -1.56266712      -1.75433526      -0.44354208       0.00000000
Si       1.64372616      -1.80418266       2.52310397       0.00000000
Si      -1.99287299       2.46420459      -1.59011953       0.00000000
Si      -2.36917362      -2.13908877       1.74376325       0.00000000
Si      -2.47717958       0.00231318       2.68325569       0.00000000
Si       3.31320681       1.37435472       0.90860530       0.00000000
Si      -0.72558918      -0.17218530      -3.69395727       0.00000000
