10
Lattice="16.28999089631971 0.0 0.0 0.0 16.28999089631971 0.0 0.0 0.0 34.433804113860816" Properties=species:S:1:pos:R:3:initial_magmoms:R:1 pbc="T T T"
Si      -1.09948215      -1.49294592      -1.40507216       0.00000000
Si       2.17297197      -0.80860302      -0.30897470       0.00000000
Si      -0.91909320      -0.46633383       2.10308020       0.00000000
Si      -0.70366936       2.09738637      -0.77799780       0.00000000
Si       1.69163505      -3.12958593       0.24293062       0.00000000
Si      -2.70654182       2.36209887       0.51223756       0.00000000
Si       2.36121921      -0.60453819      -2.69117546       0.00000000
Si      -3.27475331      -1.49814243      -0.61436828       0.00000000
Si      -2.61989531      -2.13436467       1.53929521       0.00000000
Si       1.07973378      -1.48012569       3.25193028       0.00000000
