10
Lattice="16.28999089631971 0.0 0.0 0.0 16.28999089631971 0.0 0.0 0.0 34.433804113860816" Properties=species:S:1:pos:R:3:initial_magmoms:R:1 pbc="T T T"
Si      -1.00771569       0.26743293       2.05889579       0.00000000
Si      -0.44574327      -2.15513442      -0.96476686       0.00000000
Si       2.20592664       1.08357822       0.32054446       0.00000000
Si      -1.99882698       1.01379186      -1.14885008       0.00000000
Si       0.82409481       1.17962406       3.16826783       0.00000000
Si       0.61190127      -1.64946024      -3.00899965       0.00000000
Si      -1.07973378       1.48012569      -3.25193028       0.00000000
Si       1.09323819       0.67152267      -3.56090497       0.00000000
Si       1.63879029       2.92475547       1.80172217       0.00000000
Si       2.84451093       1.47958812      -2.08710290       0.00000000
