10
Lattice="16.28999089631971 0.0 0.0 0.0 16.28999089631971 0.0 0.0 0.0 34.433804113860816" Properties=species:S:1:pos:R:3:initial_magmoms:R:1 pbc="T T T"
Si      -1.35774008      -1.35488817       1.35834546       0.00000000
Si       1.35750386      -1.35708732      -1.35710585       0.00000000
Si      -1.35783782       1.35812988      -1.35741575       0.00000000
Si       1.35806261       1.36068741       1.35841433       0.00000000
Si       2.71348020      -0.00218286      -2.71355745       0.00000000
Si       0.00053837      -2.71383255      -2.71472820       0.00000000
Si      -0.00002612       2.71452925      -2.71452160       0.00000000
Si      -2.71386629      -0.00039096      -2.71548574       0.00000000
Si       2.71481598      -2.71466334      -0.00010330       0.00000000
Si      -2.71485998      -2.71467963       0.00013774       0.00000000
