10
Lattice="10.86 0.0 0.0 0.0 10.86 0.0 0.0 0.0 10.86" Properties=species:S:1:pos:R:3:initial_magmoms:R:1 pbc="T T T"
Si       1.51467678       1.18302324       1.48267236       0.00000000
Si      -1.20032322      -1.53197676       1.48267236       0.00000000
Si       1.51467678      -1.53197676      -1.23232764       0.00000000
Si      -2.47020474       2.43787452       0.19906380       0.00000000
Si       0.15717678       2.54052324       2.84017236       0.00000000
Si      -2.55782322      -0.17447676       2.84017236       0.00000000
Si       2.87217678       2.54052324       0.12517236       0.00000000
Si       2.87217678      -0.17447676      -2.58982764       0.00000000
Si      -2.36169162      -3.09056052       0.16442040       0.00000000
Si      -0.06760350      -2.99992296      -2.48242224       0.00000000
