10
Lattice="16.28999089631971 0.0 0.0 0.0 16.28999089631971 0.0 0.0 0.0 34.40785480372833" Properties=species:S:1:pos:R:3:initial_magmoms:R:1 pbc="T T T"
Si      -2.23412463      -0.74674989      -0.63479572       0.00000000
Si       0.59937426       2.26779606      -0.73210119       0.00000000
Si       1.39004199      -0.87640200      -1.85906229       0.00000000
Si       1.15588953      -1.23072579       2.05004866       0.00000000
Si      -1.52461368       1.44990774       2.10485008       0.00000000
Si       2.56192830      -2.64660372       0.73715085       0.00000000
Si       3.70926558      -1.19501811      -0.85397388       0.00000000
Si       2.58520671       3.00679191       0.54864731       0.00000000
Si       0.91158840       0.45610371      -3.91045974       0.00000000
Si      -3.06514921      -2.58773329       0.64998194       0.00000000
