10
Lattice="16.28999089631971 0.0 0.0 0.0 16.28999089631971 0.0 0.0 0.0 34.40785480372833" Properties=species:S:1:pos:R:3:initial_magmoms:R:1 pbc="T T T"
Si       1.35371529      -1.35543533      -1.35869813       0.00000000
Si       1.35555606       1.35937855       1.35780353       0.00000000
Si      -1.35917244      -1.35628241       1.35831964       0.00000000
Si      -1.36187658       1.36450664      -1.36368727       0.00000000
Si       2.71347417      -2.71188734      -0.00006882       0.00000000
Si      -0.00778662      -2.70954158      -2.71893773       0.00000000
Si      -0.00175932      -2.71372811       2.71526297       0.00000000
Si      -2.71554300      -2.71369553       0.00092901       0.00000000
Si       2.71365336       0.00138040       2.71577909       0.00000000
Si       2.71464705       2.71497045      -0.00006882       0.00000000
