10
Lattice="16.28999089631971 0.0 0.0 0.0 16.28999089631971 0.0 0.0 0.0 34.40785480372833" Properties=species:S:1:pos:R:3:initial_magmoms:R:1 pbc="T T T"
Si       0.15390792      -2.02777757      -1.24890260       0.00000000
Si       0.44693244       1.67154948      -1.65577571       0.00000000
Si      -2.13469047       0.03481173       1.09234678       0.00000000
Si       2.00806830      -0.03556107       1.44341032       0.00000000
Si       1.08528867      -3.08887755       0.67683729       0.00000000
Si      -1.73263698      -0.95974164       3.15303435       0.00000000
Si       3.18199086       1.81765449       0.69885833       0.00000000
Si       3.14887329      -1.90197316       0.68031249       0.00000000
Si      -2.60398908       2.25118026       1.57078827       0.00000000
Si       1.30269501      -1.42390890      -3.29001210       0.00000000
