10
Lattice="16.28999089631971 0.0 0.0 0.0 16.28999089631971 0.0 0.0 0.0 34.40785480372833" Properties=species:S:1:pos:R:3:initial_magmoms:R:1 pbc="T T T"
Si      -0.15390792       2.02777757       1.24890260       0.00000000
Si       0.93138075      -1.06109997       1.92573989       0.00000000
Si      -2.06327511      -0.99650964      -0.73078884       0.00000000
Si       1.14878709       0.60386867      -2.04110950       0.00000000
Si       2.99496537       0.12580441       1.92921509       0.00000000
Si       0.08112420       2.65127732      -2.57511970       0.00000000
Si       0.29302452       3.69932705      -0.40687311       0.00000000
Si      -3.37892067      -1.24057377       1.20812927       0.00000000
Si       1.85416038       1.99221650       2.69231292       0.00000000
Si      -2.28859839       2.06258930       2.34124938       0.00000000
