10
Lattice="16.28999089631971 0.0 0.0 0.0 16.28999089631971 0.0 0.0 0.0 34.40785480372833" Properties=species:S:1:pos:R:3:initial_magmoms:R:1 pbc="T T T"
Si       0.22542102       1.16488161       1.99431479       0.00000000
Si      -1.93417686      -0.91567719      -1.18837915       0.00000000
Si       0.94925088       1.98337266      -1.15988943       0.00000000
Si       1.99940202      -1.48581090       0.11936092       0.00000000
Si      -0.29517480      -1.96739217      -2.53919788       0.00000000
Si       2.80824939       1.29135717       1.61544969       0.00000000
Si       2.43869445       0.76893687      -2.53723663       0.00000000
Si      -0.33441741      -0.52786116       3.56830298       0.00000000
Si       1.15859367      -3.26251233      -1.15256056       0.00000000
Si       2.98714617      -1.15439085       2.30825223       0.00000000
