10
Lattice="16.28999089631971 0.0 0.0 0.0 16.28999089631971 0.0 0.0 0.0 34.40785480372833" Properties=species:S:1:pos:R:3:initial_magmoms:R:1 pbc="T T T"
Si       0.85343310       1.53244917      -1.62704514       0.00000000
Si       0.71477262      -2.22632172      -0.67033420       0.00000000
Si      -2.28856581       0.81331083      -0.53975632       0.00000000
Si       0.40255848      -0.41462937       2.50802435       0.00000000
Si      -1.42420212       1.18745955       2.94443012       0.00000000
Si      -2.27566413       2.42054739       1.17107199       0.00000000
Si      -1.30893408      -2.59234173      -1.99400512       0.00000000
Si      -0.88505199       1.36832742      -3.21944155       0.00000000
Si       1.51863525       3.56746113      -0.75604422       0.00000000
Si       1.19322621      -3.55882743       1.38106325       0.00000000
