10
Lattice="16.28999089631971 0.0 0.0 0.0 16.28999089631971 0.0 0.0 0.0 34.40785480372833" Properties=species:S:1:pos:R:3:initial_magmoms:R:1 pbc="T T T"
Si       0.73927278       2.23998903       0.15872352       0.00000000
Si       1.98019611      -1.14523587      -0.84299291       0.00000000
Si       0.05587470      -0.37841670       2.43040018       0.00000000
Si      -1.73498274      -0.56755989      -1.66337985       0.00000000
Si      -0.26094951       1.01387331      -2.61558336       0.00000000
Si       0.79894305      -2.59116885       2.36230700       0.00000000
Si      -0.97528230      -2.73792546      -2.27649376       0.00000000
Si       2.87055864       2.22412257       1.22526439       0.00000000
Si      -1.16579385      -3.44618208       1.38312772       0.00000000
Si       2.75778297      -2.53998567       1.09351664       0.00000000
