10
Lattice="16.28999089631971 0.0 0.0 0.0 16.28999089631971 0.0 0.0 0.0 34.40785480372833" Properties=species:S:1:pos:R:3:initial_magmoms:R:1 pbc="T T T"
Si       1.11299796       1.63067787      -1.17003976       0.00000000
Si      -0.68661536      -1.44651942      -1.67666129       0.00000000
Si       1.55317005      -1.29653739       1.13580392       0.00000000
Si      -1.78223514       1.01131578       1.25471753       0.00000000
Si      -1.99529042      -0.85856445       2.69176239       0.00000000
Si       0.11127699      -1.93483172       2.88534109       0.00000000
Si      -0.71909599       2.99858175      -1.75755421       0.00000000
Si      -2.79253673      -0.56801601      -2.18032375       0.00000000
Si      -0.88473759       2.89906614       2.35638885       0.00000000
Si       0.65557476      -1.21722138      -3.61612993       0.00000000
