10
Lattice="16.28999089631971 0.0 0.0 0.0 16.28999089631971 0.0 0.0 0.0 34.40785480372833" Properties=species:S:1:pos:R:3:initial_magmoms:R:1 pbc="T T T"
Si      -0.31519521      -1.62487863       1.68268267       0.00000000
Si      -0.34984404       2.20852410       0.80146261       0.00000000
Si       2.24520183       0.00702099      -0.78453394       0.00000000
Si      -1.34952876      -0.56052261      -1.89700932       0.00000000
Si      -1.01910240       1.55289312      -2.96774795       0.00000000
Si      -1.21223664       3.18861667      -1.22798262       0.00000000
Si       2.21192136      -2.02751856      -2.04052456       0.00000000
Si       0.08063550      -2.01165210      -3.10706543       0.00000000
Si      -1.66548960       1.96445997       2.74038072       0.00000000
Si       0.74186289      -3.65097996       0.90523676       0.00000000
