10
Lattice="16.28999089631971 0.0 0.0 0.0 16.28999089631971 0.0 0.0 0.0 34.40785480372833" Properties=species:S:1:pos:R:3:initial_magmoms:R:1 pbc="T T T"
Si      -1.55317005       1.29653739      -1.13580392       0.00000000
Si       0.85755447      -2.10995315      -0.55919677       0.00000000
Si      -1.44189306      -0.63829433       1.74953717       0.00000000
Si       1.94787675       1.19320992       0.57392334       0.00000000
Si       0.11217294      -0.09485667       3.44649911       0.00000000
Si       2.34993024       0.19865655       2.63461091       0.00000000
Si      -2.23978541      -0.14998203      -2.81246522       0.00000000
Si      -1.01529054      -3.51486791      -0.60516569       0.00000000
Si      -0.44017209       2.92721526      -2.30584368       0.00000000
Si       2.17320003      -1.86588902      -2.49811488       0.00000000
