10
Lattice="16.28999089631971 0.0 0.0 0.0 16.28999089631971 0.0 0.0 0.0 34.40785480372833" Properties=species:S:1:pos:R:3:initial_magmoms:R:1 pbc="T T T"
Si      -1.46316780      -1.30515480      -1.38616391       0.00000000
Si      -1.29443598       1.37049399       1.52212177       0.00000000
Si       1.40831937      -1.33537275       1.54212995       0.00000000
Si       1.28534616       1.46509002      -1.63541455       0.00000000
Si       0.44603649      -2.19234078      -2.69046319       0.00000000
Si      -2.61050508      -2.75674041       0.20496082       0.00000000
Si       2.72818404       2.66483223       0.03442164       0.00000000
Si       1.77018543      -0.15626997      -3.39523968       0.00000000
Si      -2.58722667       2.89665522       0.01645729       0.00000000
Si       2.72319930      -2.77938677       0.22972073       0.00000000
