10
Lattice="16.28999089631971 0.0 0.0 0.0 16.28999089631971 0.0 0.0 0.0 34.40785480372833" Properties=species:S:1:pos:R:3:initial_magmoms:R:1 pbc="T T T"
Si       0.65666619      -2.17306971      -0.75040132       0.00000000
Si      -2.25251930      -0.28636191       0.87113855       0.00000000
Si       0.11137473       1.65809394      -1.77678821       0.00000000
Si       2.02370670       0.36602001       1.32367091       0.00000000
Si       1.30893408       2.59234173       1.99400512       0.00000000
Si      -1.65186301      -1.92075390       2.52863466       0.00000000
Si       3.74906205      -0.05910012      -0.30392475       0.00000000
Si      -0.89739981      -2.71650737      -2.44736326       0.00000000
Si       2.89442349      -1.87955649      -1.56228952       0.00000000
Si      -0.97963173       3.40565256       1.45424880       0.00000000
