10
Lattice="16.28999089631971 0.0 0.0 0.0 16.28999089631971 0.0 0.0 0.0 34.40785480372833" Properties=species:S:1:pos:R:3:initial_magmoms:R:1 pbc="T T T"
Si       1.35672894       1.35837771       1.35639280       0.00000000
Si      -1.35793440      -1.35715782       1.35714978       0.00000000
Si       1.35736425      -1.35725556      -1.35790675       0.00000000
Si      -1.35809730       1.35799815      -1.35797556       0.00000000
Si      -0.00099369       2.70948497       2.71691455       0.00000000
Si      -0.00017919      -2.71326774      -2.71584791       0.00000000
Si       2.71469592      -2.71461981      -0.00041289       0.00000000
Si      -2.71533123       2.71399730      -0.00141072       0.00000000
Si      -2.71365336      -0.00138040      -2.71577909       0.00000000
Si       0.00099369       2.71359005      -2.71584791       0.00000000
