10
Lattice="16.28999089631971 0.0 0.0 0.0 16.28999089631971 0.0 0.0 0.0 34.40785480372833" Properties=species:S:1:pos:R:3:initial_magmoms:R:1 pbc="T T T"
Si       1.35628911       1.35599635       1.35718418       0.00000000
Si      -1.36000323       1.35619672      -1.35800997       0.00000000
Si      -1.35852084      -1.35904070       1.35670247       0.00000000
Si       1.35759231      -1.35887780      -1.35783793       0.00000000
Si      -2.69228088      -0.01016851      -2.72041727       0.00000000
Si      -0.00052128       2.71242393       2.71398988       0.00000000
Si       2.71419093       2.71234248      -0.00055053       0.00000000
Si      -2.71489140       2.71180491      -0.00123868       0.00000000
Si       2.71376739      -0.00108654       2.71409310       0.00000000
Si       2.71178001      -2.71629092      -0.00072257       0.00000000
