10
Lattice="16.28999089631971 0.0 0.0 0.0 16.28999089631971 0.0 0.0 0.0 34.40785480372833" Properties=species:S:1:pos:R:3:initial_magmoms:R:1 pbc="T T T"
Si      -1.32758613      -1.34733775       1.37769128       0.00000000
Si       1.35772263      -1.35110726      -1.36052175       0.00000000
Si      -1.35552348       1.36311462      -1.35938629       0.00000000
Si       1.35698958       1.36692648       1.38047831       0.00000000
Si      -2.62531269       0.05167188       2.74657414       0.00000000
Si       2.71590138      -2.70792482      -0.00020645       0.00000000
Si       0.00099369      -2.70948497      -2.71691455       0.00000000
Si      -2.71559187      -2.71115377      -0.00010322       0.00000000
Si      -2.71433754       0.00451233      -2.71832527       0.00000000
Si       2.71635750       0.00472410      -2.71753389       0.00000000
