10
Lattice="16.28999089631971 0.0 0.0 0.0 16.28999089631971 0.0 0.0 0.0 34.40785480372833" Properties=species:S:1:pos:R:3:initial_magmoms:R:1 pbc="T T T"
Si      -1.35817875       1.35681755      -1.36031530       0.00000000
Si       1.35860229      -1.35824556      -1.36000563       0.00000000
Si       1.36303317       1.35110465       1.37879233       0.00000000
Si      -1.36518345      -1.36647201       1.38873620       0.00000000
Si      -2.71590138       2.70792482       0.00020645       0.00000000
Si       2.71337643       2.71077557       0.00079138       0.00000000
Si       2.71150308      -2.71631028      -0.00092901       0.00000000
Si       0.00045612       2.71264892      -2.71732744       0.00000000
Si      -2.71629234      -2.71417629       0.00058493       0.00000000
Si      -2.71490769      -0.00156015      -2.71670810       0.00000000
