10
Lattice="16.28999089631971 0.0 0.0 0.0 16.28999089631971 0.0 0.0 0.0 34.40785480372833" Properties=species:S:1:pos:R:3:initial_magmoms:R:1 pbc="T T T"
Si       1.17999873      -1.51587572      -1.36891727       0.00000000
Si       1.83622509       0.68258358       1.34424682       0.00000000
Si      -1.54194624       1.20787092      -1.36702484       0.00000000
Si       0.01474245      -0.25612767       2.77647458       0.00000000
Si      -0.91517220      -2.46114370       2.24618042       0.00000000
Si       2.55756258       2.59061499       0.07731449       0.00000000
Si       2.53034199      -0.15620481      -2.74691822       0.00000000
Si      -0.18393039       2.56360617      -2.74702144       0.00000000
Si       2.59199964      -2.85870671       0.09716784       0.00000000
Si      -2.91004560       2.59708212       0.03623149       0.00000000
