10
Lattice="16.28999089631971 0.0 0.0 0.0 16.28999089631971 0.0 0.0 0.0 34.40785480372833" Properties=species:S:1:pos:R:3:initial_magmoms:R:1 pbc="T T T"
Si       2.23790391       0.73261017       0.02198663       0.00000000
Si      -1.06766289       2.04740865      -0.53401020       0.00000000
Si       0.34391448      -1.94967584      -1.35102517       0.00000000
Si      -1.14878709      -0.60386867       2.04110950       0.00000000
Si       2.97243630      -0.22483132       1.96073270       0.00000000
Si      -0.85576257       3.09545838       1.63423639       0.00000000
Si      -3.15887535       1.42242651      -1.39778547       0.00000000
Si       3.29235561      -0.34499614      -1.75985953       0.00000000
Si      -1.30269501       1.42390890       3.29001210       0.00000000
Si      -3.21206220      -1.60037831       1.31032066       0.00000000
