10
Lattice="16.28999089631971 0.0 0.0 0.0 16.28999089631971 0.0 0.0 0.0 34.40785480372833" Properties=species:S:1:pos:R:3:initial_magmoms:R:1 pbc="T T T"
Si       1.17392256       1.85321556      -0.74455199       0.00000000
Si       1.14080499      -1.86641209      -0.76309783       0.00000000
Si       0.64490481      -0.24949764       2.30298782       0.00000000
Si      -2.00806830       0.03556107      -1.44341032       0.00000000
Si      -0.41414067       3.23534061       0.32181685       0.00000000
Si      -0.92277963      -3.05331648      -0.76657303       0.00000000
Si      -1.85416038      -1.99221650      -2.69231292       0.00000000
Si      -1.56113586       1.70711055      -3.09918603       0.00000000
Si       2.19361140      -2.12880652       2.37269818       0.00000000
Si      -2.39274036      -2.81812276       1.16917956       0.00000000
