10
Lattice="16.28999089631971 0.0 0.0 0.0 16.28999089631971 0.0 0.0 0.0 34.40785480372833" Properties=species:S:1:pos:R:3:initial_magmoms:R:1 pbc="T T T"
Si       1.23447249       1.15826282       1.61591905       0.00000000
Si      -1.04269032       1.74530881      -1.30426487       0.00000000
Si      -1.41679017      -1.45747528       1.42967267       0.00000000
Si       1.74205260      -1.05455842      -1.49822206       0.00000000
Si       2.88833103       2.21066524       0.30826156       0.00000000
Si      -2.69889462       0.75991042      -2.71901343       0.00000000
Si      -0.08040744       2.60227684       2.92832827       0.00000000
Si       2.85522975      -2.71079530      -0.13009617       0.00000000
Si      -2.95189461       2.63249479       0.00003441       0.00000000
Si       2.66333355      -0.14405752       2.93961749       0.00000000
