10
Lattice="16.28999089631971 0.0 0.0 0.0 16.28999089631971 0.0 0.0 0.0 34.40785480372833" Properties=species:S:1:pos:R:3:initial_magmoms:R:1 pbc="T T T"
Si       1.35790182       1.34387613       1.38872588       0.00000000
Si      -1.35959598      -1.36682874       1.38869147       0.00000000
Si       1.30471497      -1.43003394      -1.49120629       0.00000000
Si      -1.30326516       1.51988958      -1.49093103       0.00000000
Si       2.69851995      -2.72233593       0.01915142       0.00000000
Si       2.72813517       2.69931816      -0.00956195       0.00000000
Si      -2.71906164       2.71026504       0.01480227       0.00000000
Si      -2.71790505      -2.72437218      -0.00350616       0.00000000
Si      -0.00070047       2.70405855       2.75120888       0.00000000
Si       2.71397916      -0.01137042       2.75162177       0.00000000
