10
Lattice="16.28999089631971 0.0 0.0 0.0 16.28999089631971 0.0 0.0 0.0 34.40785480372833" Properties=species:S:1:pos:R:3:initial_magmoms:R:1 pbc="T T T"
Si      -1.35540945       1.35788553       1.36310234       0.00000000
Si       1.36010097      -1.35873261       1.36220773       0.00000000
Si      -1.35830907      -1.35754344      -1.39219764       0.00000000
Si       1.35959598       1.36682874      -1.38869147       0.00000000
Si      -2.71396287       2.71023246       0.00643427       0.00000000
Si      -2.71676475      -2.71129131      -0.00141072       0.00000000
Si       2.71749780       2.71070487       0.00003441       0.00000000
Si       2.71658556      -2.71438641       0.00381927       0.00000000
Si      -2.71295289      -0.00083079       2.71997685       0.00000000
Si       0.00201996       2.71345788       2.72035534       0.00000000
