10
Lattice="16.28999089631971 0.0 0.0 0.0 16.28999089631971 0.0 0.0 0.0 34.40785480372833" Properties=species:S:1:pos:R:3:initial_magmoms:R:1 pbc="T T T"
Si      -1.95883992      -0.05118318       1.26879035       0.00000000
Si       1.50558696       1.23466797       1.37507628       0.00000000
Si       0.67603500      -2.22738057      -0.53101672       0.00000000
Si      -0.77758686       1.39474980      -1.93650956       0.00000000
Si      -2.70190827       2.16156897       1.33688354       0.00000000
Si      -0.30459042      -3.64205304       1.12940406       0.00000000
Si      -1.46225556      -0.67671918       3.47426626       0.00000000
Si       3.05207811      -2.30876541      -0.56848689       0.00000000
Si      -2.75778297       2.53998567      -1.09351664       0.00000000
Si       3.65790321       1.36889757       0.30062160       0.00000000
