10
Lattice="16.28999089631971 0.0 0.0 0.0 16.28999089631971 0.0 0.0 0.0 34.40785480372833" Properties=species:S:1:pos:R:3:initial_magmoms:R:1 pbc="T T T"
Si      -1.35435282       1.35770319      -1.35511971       0.00000000
Si      -1.35560715      -1.35799849       1.35776912       0.00000000
Si       1.35911876       1.35704671       1.35773471       0.00000000
Si       1.36316683      -1.36311355      -1.36093464       0.00000000
Si      -0.00744675       2.71265164      -2.69759109       0.00000000
Si      -2.69930409      -0.02141635      -2.72334882       0.00000000
Si      -2.71274334       2.71361275       0.00048171       0.00000000
Si      -2.71316688       0.00018373       2.71512534       0.00000000
Si       2.71387010       2.71452499       0.00041289       0.00000000
Si       0.00161201       2.71460644       2.71491889       0.00000000
