10
Lattice="16.28999089631971 0.0 0.0 0.0 16.28999089631971 0.0 0.0 0.0 34.40785480372833" Properties=species:S:1:pos:R:3:initial_magmoms:R:1 pbc="T T T"
Si       1.35663120       1.35707103      -1.35687451       0.00000000
Si      -1.35894438      -1.35795069      -1.35739063       0.00000000
Si       1.35803214      -1.35669636       1.36155398       0.00000000
Si      -1.35944937       1.35907470       1.36083142       0.00000000
Si       2.70529659       0.02808396       2.72283270       0.00000000
Si       2.71425609      -0.00070047      -2.71426514       0.00000000
Si      -0.00070047       2.71443528      -2.71436837       0.00000000
Si      -0.03067407      -2.71249677       2.71715540       0.00000000
Si      -2.71593396      -0.00057015      -2.71405870       0.00000000
Si      -0.00071676      -2.71599912      -2.71419633       0.00000000
