10
Lattice="16.28999089631971 0.0 0.0 0.0 16.28999089631971 0.0 0.0 0.0 34.40785480372833" Properties=species:S:1:pos:R:3:initial_magmoms:R:1 pbc="T T T"
Si      -1.35110889      -1.34770428      -1.38815127       0.00000000
Si       1.36518345       1.36647201      -1.38873620       0.00000000
Si       1.28731725      -1.39388643       1.47922891       0.00000000
Si      -1.15056270       1.42670151       1.59793608       0.00000000
Si       2.45985516       0.30116952       2.85282565       0.00000000
Si       2.71363707      -2.67869502      -0.02614998       0.00000000
Si      -2.72486088      -2.68006338      -0.01083848       0.00000000
Si      -2.67830406       2.72705907      -0.01083848       0.00000000
Si       2.72821662       2.71757666      -0.00994388       0.00000000
Si       0.00834048      -2.70677898      -2.74898269       0.00000000
