10
Lattice="16.28999089631971 0.0 0.0 0.0 16.28999089631971 0.0 0.0 0.0 34.40785480372833" Properties=species:S:1:pos:R:3:initial_magmoms:R:1 pbc="T T T"
Si       2.21912154      -0.31863240       0.57609103       0.00000000
Si      -0.05207913      -1.90391004      -1.43676960       0.00000000
Si      -1.10434797      -0.86666058       1.93853962       0.00000000
Si      -0.34181307       2.48165118      -0.08670784       0.00000000
Si      -1.12309776       0.87693957      -2.59906758       0.00000000
Si      -2.09056086      -1.24595694      -2.34124938       0.00000000
Si      -2.04885846       1.18859985       2.49137094       0.00000000
Si       0.02769300       2.54896146       2.48562482       0.00000000
Si       3.29460363       1.56991617      -0.02470485       0.00000000
Si      -3.59455140      -0.71110737      -0.62832219       0.00000000
