10
Lattice="16.28999089631971 0.0 0.0 0.0 16.28999089631971 0.0 0.0 0.0 34.40785480372833" Properties=species:S:1:pos:R:3:initial_magmoms:R:1 pbc="T T T"
Si       0.00048870       2.35152081       0.37845221       0.00000000
Si      -2.07655146      -1.36036161       0.00574611       0.00000000
Si       2.20594293       0.49637259      -1.06733225       0.00000000
Si       0.63153072      -0.83082258       2.30529315       0.00000000
Si      -0.36950607      -0.06731028      -2.57233266       0.00000000
Si      -1.12576932       2.09828788       2.38804409       0.00000000
Si      -0.02769300      -2.54896146      -2.48562482       0.00000000
Si       3.50259435       0.28271295       0.93740812       0.00000000
Si      -1.13204097      -3.41562204      -0.54708520       0.00000000
Si      -0.73404369       3.30896231      -1.56029386       0.00000000
