10
Lattice="16.28999089631971 0.0 0.0 0.0 16.28999089631971 0.0 0.0 0.0 34.40785480372833" Properties=species:S:1:pos:R:3:initial_magmoms:R:1 pbc="T T T"
Si       0.94451049      -2.05526043      -0.55283131       0.00000000
Si      -0.86480352      -0.03536559       2.19329552       0.00000000
Si      -1.51241247       0.13483233      -1.86370250       0.00000000
Si       2.07655146       1.36036161      -0.00574611       0.00000000
Si       1.70704539       1.29305133      -2.57807878       0.00000000
Si       2.04885846      -1.18859985      -2.49137094       0.00000000
Si      -1.11280248       2.27174510       2.37882278       0.00000000
Si      -0.55148166       1.98703791      -2.93905178       0.00000000
Si       2.70808218       0.52953903       2.29954704       0.00000000
Si      -0.95513157      -3.27912813      -1.30842823       0.00000000
