10
Lattice="16.28999089631971 0.0 0.0 0.0 16.28999089631971 0.0 0.0 0.0 34.40785480372833" Properties=species:S:1:pos:R:3:initial_magmoms:R:1 pbc="T T T"
Si       1.36071999      -1.35170836      -1.36031530       0.00000000
Si      -1.35637056       1.36104579      -1.35955833       0.00000000
Si      -1.35034326      -1.35967091       1.37800095       0.00000000
Si       1.37601630       1.37653758       1.36547648       0.00000000
Si      -2.53034199       0.15620481       2.74691822       0.00000000
Si       2.71234736      -2.71003718       0.00199566       0.00000000
Si      -2.71337643      -2.71077557      -0.00079138       0.00000000
Si       0.00136836      -2.71163711      -2.71801560       0.00000000
Si      -2.71292031       0.00187335      -2.71811882       0.00000000
Si       2.70802790       2.72442105      -0.00591815       0.00000000
