10
Lattice="16.28999089631971 0.0 0.0 0.0 16.28999089631971 0.0 0.0 0.0 34.40785480372833" Properties=species:S:1:pos:R:3:initial_magmoms:R:1 pbc="T T T"
Si      -0.85146201       1.23308784      -1.77335813       0.00000000
Si       1.12111038       1.77950331       1.07967883       0.00000000
Si      -1.74352522      -1.16238924       1.13629011       0.00000000
Si       1.82676060      -1.60208892      -0.43640577       0.00000000
Si       2.41781067       0.33881571       2.38098119       0.00000000
Si      -0.29722734      -2.41997724       2.40054550       0.00000000
Si       1.42420212      -1.18745955      -2.94443012       0.00000000
Si      -0.86436369      -0.37414872      -3.48418644       0.00000000
Si       0.93898818       2.76392430      -2.49588907       0.00000000
Si      -2.67649587       2.69527824      -0.68090813       0.00000000
