10
Lattice="16.28999089631971 0.0 0.0 0.0 16.28999089631971 0.0 0.0 0.0 34.40785480372833" Properties=species:S:1:pos:R:3:initial_magmoms:R:1 pbc="T T T"
Si       1.16621739       0.09073530       2.06416277       0.00000000
Si      -1.17081117      -1.88977751      -1.03612431       0.00000000
Si       1.84082931       1.18392462      -1.16632371       0.00000000
Si      -1.92658572       1.65151278       0.21095468       0.00000000
Si       0.14354748       2.18926197      -2.51473388       0.00000000
Si      -0.29660832       2.02976658       2.83902809       0.00000000
Si      -2.58281208      -0.54694652      -2.50220942       0.00000000
Si       2.84839025      -0.52160906      -2.51531882       0.00000000
Si      -1.20524823       3.55954419      -1.05597765       0.00000000
Si       3.30936956       1.23821919       1.88568913       0.00000000
