10
Lattice="16.28999089631971 0.0 0.0 0.0 16.28999089631971 0.0 0.0 0.0 34.40785480372833" Properties=species:S:1:pos:R:3:initial_magmoms:R:1 pbc="T T T"
Si      -0.79377912       1.37967015      -1.71213581       0.00000000
Si       1.47565964       1.28769681       1.30774007       0.00000000
Si      -2.04377598      -0.73084108       0.95117127       0.00000000
Si       0.59393340      -1.70942603      -1.53696533       0.00000000
Si       1.68871492       3.15757704      -0.12930479       0.00000000
Si      -2.90817225       0.35938183      -2.09592124       0.00000000
Si      -2.27713023      -2.82296156      -0.16908029       0.00000000
Si       0.96562233      -2.58424790       2.37441857       0.00000000
Si      -0.07802910      -3.74297189      -0.58035761       0.00000000
Si       0.43412850       2.02652976       3.27397803       0.00000000
