10
Lattice="16.28999089631971 0.0 0.0 0.0 16.28999089631971 0.0 0.0 0.0 34.40785480372833" Properties=species:S:1:pos:R:3:initial_magmoms:R:1 pbc="T T T"
Si      -1.32025563       0.72824445       1.75297796       0.00000000
Si      -0.36807255      -2.26396791      -0.45353019       0.00000000
Si       2.11442149      -0.48606102       1.12930083       0.00000000
Si      -0.49058964       0.97726968      -2.19855993       0.00000000
Si       1.10411991      -2.06539281      -2.30574045       0.00000000
Si       1.52189325       0.13248657      -3.06446848       0.00000000
Si      -1.41680646       3.04904817       1.57780747       0.00000000
Si      -3.57560613       0.18213849       1.19082211       0.00000000
Si      -2.59483410      -0.04142547      -2.75896097       0.00000000
Si       0.42570657      -3.64363806       1.25860562       0.00000000
