10
Lattice="16.28999089631971 0.0 0.0 0.0 16.28999089631971 0.0 0.0 0.0 34.40785480372833" Properties=species:S:1:pos:R:3:initial_magmoms:R:1 pbc="T T T"
Si      -1.35801585      -1.35718506      -1.35735622       0.00000000
Si       1.35747828       1.35796698      -1.35732181       0.00000000
Si      -1.35610992       1.35938421       1.36090023       0.00000000
Si       1.35988920      -1.35811359       1.35897339       0.00000000
Si      -0.00042354      -2.71428867      -2.71529738       0.00000000
Si      -2.71485882       0.00008145      -2.71485008       0.00000000
Si      -2.71414206       2.71608057      -0.00065375       0.00000000
Si       0.00011403       2.71538010      -2.71491889       0.00000000
Si      -2.71676475      -2.71389771      -0.00172039       0.00000000
Si       2.71505430       0.00035838      -2.71571027       0.00000000
