10
Lattice="16.28999089631971 0.0 0.0 0.0 16.28999089631971 0.0 0.0 0.0 34.40785480372833" Properties=species:S:1:pos:R:3:initial_magmoms:R:1 pbc="T T T"
Si      -1.32682050       1.41522633       1.26744845       0.00000000
Si      -1.36208835      -1.34534223      -1.36427221       0.00000000
Si       1.34830701       1.37109672      -1.36571734       0.00000000
Si       1.29754737      -1.16084169       1.67965478       0.00000000
Si       0.41526468       2.42189946       2.54477196       0.00000000
Si      -0.43802181      -2.32963290       2.93038100       0.00000000
Si       2.19056095       0.69235758       3.02957890       0.00000000
Si       2.69413047      -2.68858305       0.03141439       0.00000000
Si      -0.00604359      -2.70356985      -2.72620468       0.00000000
Si       2.70737749       0.01251072      -2.72352086       0.00000000
