10
Lattice="16.28999089631971 0.0 0.0 0.0 16.28999089631971 0.0 0.0 0.0 34.40785480372833" Properties=species:S:1:pos:R:3:initial_magmoms:R:1 pbc="T T T"
Si       1.66434930       1.59431859      -0.41086442       0.00000000
Si       0.21711312      -0.35969949       2.32617873       0.00000000
Si       0.72132120      -2.07839223      -0.89099190       0.00000000
Si      -2.13542352       0.39622167      -1.01066248       0.00000000
Si       3.27602881      -0.22854870      -0.65880756       0.00000000
Si       0.60724233       2.57911425      -2.31379190       0.00000000
Si      -2.31314742      -2.72403009       0.58775530       0.00000000
Si      -0.90536562      -2.47697595       2.51893164       0.00000000
Si      -1.70893503      -0.03422529      -3.30171078       0.00000000
Si      -1.15724160      -3.27521853      -1.41423244       0.00000000
