10
Lattice="16.28999089631971 0.0 0.0 0.0 16.28999089631971 0.0 0.0 0.0 34.40785480372833" Properties=species:S:1:pos:R:3:initial_magmoms:R:1 pbc="T T T"
Si      -1.35418770       1.35741312      -1.35711537       0.00000000
Si      -1.35534429      -1.35788553       1.35752826       0.00000000
Si       1.35954711       1.35702216       1.35745945       0.00000000
Si       1.36018242      -1.36073628      -1.36306793       0.00000000
Si       0.01585017       2.69360430      -2.72365849       0.00000000
Si      -2.71296918      -0.00011403       2.71491889       0.00000000
Si      -2.71178001       2.71629092       0.00072257       0.00000000
Si      -2.71344159      -2.71575477      -0.00024086       0.00000000
Si       0.00198738       2.71520438       2.71481567       0.00000000
Si       2.71515426       2.71502065      -0.00030967       0.00000000
