10
Lattice="16.28999089631971 0.0 0.0 0.0 16.28999089631971 0.0 0.0 0.0 34.40785480372833" Properties=species:S:1:pos:R:3:initial_magmoms:R:1 pbc="T T T"
Si       1.35290079      -1.35806472       1.35907662       0.00000000
Si       1.35614250       1.35738401      -1.35721859       0.00000000
Si      -1.35881406      -1.35793440      -1.35711537       0.00000000
Si      -1.35860229       1.35824556       1.36000563       0.00000000
Si      -0.01014867      -2.68692147       2.72259185       0.00000000
Si       2.71370223      -0.00079821      -2.71457481       0.00000000
Si      -0.00133578       2.71446690      -2.71412751       0.00000000
Si       2.71402803      -2.71523349      -0.00044730       0.00000000
Si      -0.00118917      -2.71570590      -2.71450600       0.00000000
Si      -2.71544526      -2.71500543      -0.00024086       0.00000000
