10
Lattice="16.28999089631971 0.0 0.0 0.0 16.28999089631971 0.0 0.0 0.0 34.40785480372833" Properties=species:S:1:pos:R:3:initial_magmoms:R:1 pbc="T T T"
Si       0.01345554      -2.14351965      -1.05184871       0.00000000
Si       2.15139491       0.47545623      -1.04995628       0.00000000
Si       0.04686633       0.18709065       2.53197223       0.00000000
Si      -1.04365143      -1.15872399      -2.95477618       0.00000000
Si      -0.96562233       2.58424790      -2.37441857       0.00000000
Si      -3.00939831       1.85340682      -1.42324730       0.00000000
Si       2.61660473       2.79567744      -0.87309980       0.00000000
Si      -0.37168893       0.87482187      -3.91138390       0.00000000
Si       0.51003731       3.87194471      -1.06667850       0.00000000
Si       4.08304682      -0.16076601       0.10325803       0.00000000
