10
Lattice="16.28999089631971 0.0 0.0 0.0 16.28999089631971 0.0 0.0 0.0 34.40785480372833" Properties=species:S:1:pos:R:3:initial_magmoms:R:1 pbc="T T T"
Si      -0.97015095      -1.19873223      -1.78274077       0.00000000
Si       1.11317715      -1.65623688       1.36812589       0.00000000
Si       1.91453112       1.27931953      -0.78890374       0.00000000
Si      -1.74205260       1.05455842       1.49822206       0.00000000
Si       2.29711806      -2.25766368      -0.71275911       0.00000000
Si      -2.23855551      -2.53829151      -0.23493696       0.00000000
Si       0.30089259      -3.17180961      -1.75301237       0.00000000
Si       2.98439316       1.63341689       1.53810079       0.00000000
Si       2.41639344      -0.29660832       2.90872954       0.00000000
Si       3.30752160      -0.35293914      -1.92419154       0.00000000
