10
Lattice="16.28999089631971 0.0 0.0 0.0 16.28999089631971 0.0 0.0 0.0 34.40785480372833" Properties=species:S:1:pos:R:3:initial_magmoms:R:1 pbc="T T T"
Si      -1.10879840       2.00979504       0.36035366       0.00000000
Si       2.17177303       0.85230909      -0.21804270       0.00000000
Si      -0.27123339      -1.25776719       1.99183742       0.00000000
Si      -0.10559178      -1.15825158      -2.12210563       0.00000000
Si       1.72650217      -2.52615546      -1.53459118       0.00000000
Si      -1.16873094      -3.14551755       0.89016611       0.00000000
Si       3.25937488      -1.19848788      -0.32518882       0.00000000
Si       1.99755148       1.98430119      -2.31657893       0.00000000
Si      -1.51443078       0.32156460       3.36264712       0.00000000
Si      -2.82139609       1.58641794       1.86191329       0.00000000
