10
Lattice="16.28999089631971 0.0 0.0 0.0 16.28999089631971 0.0 0.0 0.0 34.40785480372833" Properties=species:S:1:pos:R:3:initial_magmoms:R:1 pbc="T T T"
Si      -1.11299796      -1.63067787       1.17003976       0.00000000
Si       0.85916718      -0.58507164      -2.06636488       0.00000000
Si      -1.83209395       1.36790388      -0.58751445       0.00000000
Si       1.53287271       1.32766758       1.20940236       0.00000000
Si      -1.72650217       2.52615546       1.53459118       0.00000000
Si       1.13878503       1.59053931      -2.87639505       0.00000000
Si      -0.71597808       2.80352529      -2.08301829       0.00000000
Si      -1.79961331      -3.07719729      -0.50662154       0.00000000
Si       0.44527086       3.37846455       1.31654848       0.00000000
Si       0.44017209      -2.92721526       2.30584368       0.00000000
