10
Lattice="16.28999089631971 0.0 0.0 0.0 16.28999089631971 0.0 0.0 0.0 34.40785480372833" Properties=species:S:1:pos:R:3:initial_magmoms:R:1 pbc="T T T"
Si      -1.34940333       1.35545832      -1.35990241       0.00000000
Si      -1.35475133      -1.35747828       1.35732181       0.00000000
Si       1.35777150      -1.35191362      -1.36423780       0.00000000
Si       1.35997065       1.35798327       1.35653043       0.00000000
Si       0.02770929       2.68553682      -2.70452083       0.00000000
Si      -2.72131685      -0.00187335      -2.69800398       0.00000000
Si      -2.71246849       2.71362078       0.00099783       0.00000000
Si      -2.71225809       0.00008145       2.71450600       0.00000000
Si      -2.71387010      -2.71452499      -0.00041289       0.00000000
Si       0.00407250      -2.71495101       2.71433396       0.00000000
