10
Lattice="16.28999089631971 0.0 0.0 0.0 16.28999089631971 0.0 0.0 0.0 34.40785480372833" Properties=species:S:1:pos:R:3:initial_magmoms:R:1 pbc="T T T"
Si       1.15271298      -2.04845121      -0.27753391       0.00000000
Si      -2.18718662      -0.88798419       0.39121753       0.00000000
Si       0.22838580       1.39031892      -1.93919337       0.00000000
Si       1.19149947       1.08235647       1.78098597       0.00000000
Si      -1.95363689      -2.02295736       2.39939869       0.00000000
Si      -1.04958588       3.34459764      -1.56411314       0.00000000
Si       3.52968462       1.10457603       1.19340270       0.00000000
Si       1.32693453      -3.18044331       1.82100233       0.00000000
Si      -1.22659790       0.52105194      -3.67978450       0.00000000
Si      -2.97516392      -2.14987275      -1.49419634       0.00000000
