10
Lattice="16.28999089631971 0.0 0.0 0.0 16.28999089631971 0.0 0.0 0.0 34.40785480372833" Properties=species:S:1:pos:R:3:initial_magmoms:R:1 pbc="T T T"
Si       1.35599589       1.35781682      -1.35787234       0.00000000
Si       1.35676152      -1.36028016       1.35556701       0.00000000
Si      -1.36007671      -1.35718506      -1.35735622       0.00000000
Si      -1.36413459       1.36002651       1.36251740       0.00000000
Si       2.71117728      -2.71349046      -0.00089460       0.00000000
Si       2.71239903       0.00006516      -2.71443718       0.00000000
Si       2.71107954       2.71731928      -0.00223651       0.00000000
Si      -0.00209978      -2.71476108      -2.71478126       0.00000000
Si       0.01479458      -2.71586880       2.71426514       0.00000000
Si      -0.00282794       2.71528955      -2.71488448       0.00000000
