10
Lattice="10.86 0.0 0.0 0.0 10.86 0.0 0.0 0.0 10.86" Properties=species:S:1:pos:R:3:initial_magmoms:R:1 pbc="T T T"
Si      -1.53931812      -0.97126410      -1.23300096       0.00000000
Si       1.16739570      -1.86409728       0.23784486       0.00000000
Si       1.12743090       1.68861054      -1.48540908       0.00000000
Si      -1.59973230       1.59873318       1.28228364       0.00000000
Si       0.11837400      -2.33204382       2.40660858       0.00000000
Si      -0.20783868      -2.45933388      -2.81792022       0.00000000
Si       2.50716132       0.25566612      -2.81792022       0.00000000
Si      -2.92283868      -2.45933388      -0.10292022       0.00000000
Si       2.50716132       2.97066612      -0.10292022       0.00000000
Si      -2.92283868       0.25566612       2.61207978       0.00000000
