10
Lattice="10.86 0.0 0.0 0.0 10.86 0.0 0.0 0.0 10.86" Properties=species:S:1:pos:R:3:initial_magmoms:R:1 pbc="T T T"
Si      -1.32310638      -1.34306706       1.32979614       0.00000000
Si      -1.32310638       1.37193294      -1.38520386       0.00000000
Si       1.39189362       1.37193294       1.32979614       0.00000000
Si       1.59973230      -1.59873318      -1.28228364       0.00000000
Si       0.06041418      -2.56999728      -2.51528460       0.00000000
Si       2.58792714       0.03772764       2.63786142       0.00000000
Si      -2.68060638       0.01443294       2.68729614       0.00000000
Si       0.39806244      -2.74435458       2.60055732       0.00000000
Si      -2.68060638      -2.70056706      -0.02770386       0.00000000
Si      -2.68060638       2.72943294      -0.02770386       0.00000000
