10
Lattice="10.86 0.0 0.0 0.0 10.86 0.0 0.0 0.0 10.86" Properties=species:S:1:pos:R:3:initial_magmoms:R:1 pbc="T T T"
Si       0.93268938      -1.05772056      -1.64963400       0.00000000
Si       0.93268938       1.65727944       1.06536600       0.00000000
Si      -1.78231062      -1.05772056       1.06536600       0.00000000
Si       2.29018938      -2.41522056      -0.29213400       0.00000000
Si       2.29018938       0.29977944       2.42286600       0.00000000
Si      -0.42481062      -2.41522056       2.42286600       0.00000000
Si      -3.01563738      -2.24496834      -0.36582996       0.00000000
Si       2.29018938       0.29977944      -3.00713400       0.00000000
Si       2.29018938       3.01477944      -0.29213400       0.00000000
Si      -0.14803266      -2.37484308      -3.00730776       0.00000000
