10
Lattice="10.86 0.0 0.0 0.0 10.86 0.0 0.0 0.0 10.86" Properties=species:S:1:pos:R:3:initial_magmoms:R:1 pbc="T T T"
Si       1.30828248       1.32288918      -1.38283638       0.00000000
Si       1.30828248      -1.39211082       1.33216362       0.00000000
Si      -1.40671752      -1.39211082      -1.38283638       0.00000000
Si      -0.21918738       2.68960932       2.52118158       0.00000000
Si       2.66578248       2.68038918      -0.02533638       0.00000000
Si       2.66578248      -0.03461082       2.68966362       0.00000000
Si       2.66578248      -0.03461082      -2.74033638       0.00000000
Si       2.66578248      -2.74961082      -0.02533638       0.00000000
Si      -0.04921752       2.68038918      -2.74033638       0.00000000
Si      -0.04921752      -2.74961082       2.68966362       0.00000000
