10
Lattice="10.86 0.0 0.0 0.0 10.86 0.0 0.0 0.0 10.86" Properties=species:S:1:pos:R:3:initial_magmoms:R:1 pbc="T T T"
Si       1.27885188       1.27484454      -1.36680702       0.00000000
Si      -1.43614812       1.27484454       1.34819298       0.00000000
Si      -1.43614812      -1.44015546      -1.36680702       0.00000000
Si       2.63635188       2.63234454      -0.00930702       0.00000000
Si       2.63141058      -0.01610538       2.70406398       0.00000000
Si      -0.07864812       2.63234454       2.70569298       0.00000000
Si      -0.07864812       2.63234454      -2.72430702       0.00000000
Si       2.63635188      -0.08265546      -2.72430702       0.00000000
Si      -2.79364812       2.63234454      -0.00930702       0.00000000
Si       2.68179012      -2.80322664      -0.01792986       0.00000000
