10
Lattice="10.86 0.0 0.0 0.0 10.86 0.0 0.0 0.0 10.86" Properties=species:S:1:pos:R:3:initial_magmoms:R:1 pbc="T T T"
Si      -1.35255870       1.29094992       1.35912900       0.00000000
Si       1.36244130       1.29094992      -1.35587100       0.00000000
Si       1.36244130      -1.42405008       1.35912900       0.00000000
Si      -2.63141058       0.01610538      -2.70406398       0.00000000
Si      -2.71005870       2.64844992       0.00162900       0.00000000
Si       0.00494130       2.64844992      -2.71337100       0.00000000
Si       0.00494130       2.64844992       2.71662900       0.00000000
Si       2.71994130       2.64844992       0.00162900       0.00000000
Si      -2.71005870      -0.06655008       2.71662900       0.00000000
Si       2.71994130      -0.06655008      -2.71337100       0.00000000
