10
Lattice="10.86 0.0 0.0 0.0 10.86 0.0 0.0 0.0 10.86" Properties=species:S:1:pos:R:3:initial_magmoms:R:1 pbc="T T T"
Si       1.20578580      -1.28318502      -1.17155508       0.00000000
Si      -1.50921420       1.43181498      -1.17155508       0.00000000
Si       1.70298918       1.55463072       0.73856688       0.00000000
Si      -1.50921420      -1.28318502       1.54344492       0.00000000
Si       2.31516738       0.18631416       2.61702108       0.00000000
Si      -0.15171420      -2.64068502      -2.52905508       0.00000000
Si      -0.18615126       2.95353990      -2.19137424       0.00000000
Si       2.56328580      -2.64068502       0.18594492       0.00000000
Si       2.79045528       0.01766922      -2.43935148       0.00000000
Si      -2.86671420       0.07431498      -2.52905508       0.00000000
