10
Lattice="10.86 0.0 0.0 0.0 10.86 0.0 0.0 0.0 10.86" Properties=species:S:1:pos:R:3:initial_magmoms:R:1 pbc="T T T"
Si       0.96960252       1.52454852       1.60084002       0.00000000
Si       1.33037172      -1.79268192      -0.95722212       0.00000000
Si      -1.74539748       1.52454852      -1.11415998       0.00000000
Si      -1.74539748      -1.19045148       1.60084002       0.00000000
Si      -0.42233454      -2.38372656      -2.13397914       0.00000000
Si       2.32576674       0.39663978      -2.29938780       0.00000000
Si       2.32710252       2.88204852       0.24334002       0.00000000
Si      -0.38789748       2.88204852      -2.47165998       0.00000000
Si       2.41045302       0.30746832       3.06199872       0.00000000
Si      -3.10289748       0.16704852      -2.47165998       0.00000000
