10
Lattice="10.86 0.0 0.0 0.0 10.86 0.0 0.0 0.0 10.86" Properties=species:S:1:pos:R:3:initial_magmoms:R:1 pbc="T T T"
Si       1.24484922       1.45318746       1.15748052       0.00000000
Si       1.24484922      -1.26181254      -1.55751948       0.00000000
Si      -1.47015078       1.45318746      -1.55751948       0.00000000
Si      -0.14208138      -2.48469198       2.45112372       0.00000000
Si       2.60234922       0.09568746       2.51498052       0.00000000
Si       2.60234922      -2.61931254      -0.20001948       0.00000000
Si      -0.11265078       2.81068746       2.51498052       0.00000000
Si      -2.74430028       0.23610726       2.61863922       0.00000000
Si       2.60234922       2.81068746      -0.20001948       0.00000000
Si      -0.26791620      -2.67333018      -2.74245408       0.00000000
