10
Lattice="16.2900001489832 0.0 0.0 0.0 16.2900001489832 0.0 0.0 0.0 29.24716389574793" Properties=species:S:1:pos:R:3:initial_magmoms:R:1 pbc="T T T"
Si      -1.83308765      -0.73298485       1.37956825       0.00000000
Si      -0.23277270      -0.00073305      -2.44243066       0.00000000
Si       0.88180866       1.89250706       1.31606096       0.00000000
Si       1.73553010      -1.78595417       0.22772807       0.00000000
H       -2.30031744       2.26236174      -0.50939785       0.00000000
Si      -0.60048850      -1.99063802       2.98171326       0.00000000
Si       2.24095993       0.68066137       2.82769770       0.00000000
Si       0.76845795      -3.33889617       1.70066994       0.00000000
Si      -3.19449184      -2.12845142       0.05858207       0.00000000
Si       3.54705957      -0.72622450       1.39956746       0.00000000
