10
Lattice="16.2900001489832 0.0 0.0 0.0 16.2900001489832 0.0 0.0 0.0 29.24716389574793" Properties=species:S:1:pos:R:3:initial_magmoms:R:1 pbc="T T T"
Si       0.38235074      -1.42866559      -1.86257639       0.00000000
Si      -2.30492914       0.04505814       0.59178711       0.00000000
Si       1.05265166      -0.74736892       2.02574631       0.00000000
Si       0.47893415       2.30052106      -0.56698552       0.00000000
Si      -1.83857901      -1.83985778      -2.40347343       0.00000000
Si      -3.19626907      -0.10096542      -1.58285651       0.00000000
Si      -2.40038854       1.94678860       1.95119529       0.00000000
Si       1.29395544      -3.35271009      -0.71292887       0.00000000
Si       2.50207072       2.64826858       0.57824568       0.00000000
Si      -1.13852603       3.45507645       0.65414207       0.00000000
