10
Lattice="16.2900001489832 0.0 0.0 0.0 16.2900001489832 0.0 0.0 0.0 29.24716389574793" Properties=species:S:1:pos:R:3:initial_magmoms:R:1 pbc="T T T"
Si       2.00964845       0.69228080      -0.95225841       0.00000000
Si      -1.60826284       1.53962796       0.85872598       0.00000000
Si       0.84338218      -1.16169715       1.91563074       0.00000000
Si      -0.42485949      -1.74437417      -1.74272151       0.00000000
Si      -0.87268789      -2.66500353       1.91080496       0.00000000
Si      -0.72778834      -3.49160700      -0.22248318       0.00000000
Si       3.18730143      -1.29284794      -0.99431583       0.00000000
Si       2.56862351      -2.40151278       0.97477873       0.00000000
Si      -1.08102070       3.62016723      -0.06396355       0.00000000
Si      -3.63139941       1.19188044      -0.28650522       0.00000000
