10
Lattice="16.2900001489832 0.0 0.0 0.0 16.2900001489832 0.0 0.0 0.0 29.24716389574793" Properties=species:S:1:pos:R:3:initial_magmoms:R:1 pbc="T T T"
H       -0.87975775      -0.55547272       1.11200642       0.00000000
Si       1.64843399      -1.58457718      -0.26261028       0.00000000
Si       0.53636454       2.11566377       0.74129862       0.00000000
Si      -0.39767148       0.72571951      -2.22132210       0.00000000
H        3.10083411       1.37784079      -0.78399948       0.00000000
Si      -1.45055935       3.22079367       0.15509771       0.00000000
H       -2.93187423      -1.77510828      -0.99525174       0.00000000
Si       0.37875879      -3.60175161       0.07475575       0.00000000
Si       2.51159222       2.72246627      -0.40211926       0.00000000
Si       0.96298336       2.17134299       3.06951910       0.00000000
