10
Lattice="16.2900001489832 0.0 0.0 0.0 16.2900001489832 0.0 0.0 0.0 29.24716389574793" Properties=species:S:1:pos:R:3:initial_magmoms:R:1 pbc="T T T"
Si       1.31880583       1.27889533       1.47570953       0.00000000
Si      -1.41929884       1.36019872      -1.37404053       0.00000000
Si      -1.39641139      -1.39030264       1.40665697       0.00000000
Si       1.29749851      -1.38818494      -1.50669105       0.00000000
Si      -2.15704037      -0.56185840      -2.61608569       0.00000000
Si      -0.52869195      -2.45042327      -2.64594705       0.00000000
Si       2.62821233       2.58051521      -0.01743131       0.00000000
Si       2.60017724      -2.74247040       0.02016007       0.00000000
Si      -2.82162351       2.59260239       0.11405809       0.00000000
Si      -0.08153145       2.62713719       2.84190304       0.00000000
