10
Lattice="16.2900001489832 0.0 0.0 0.0 16.2900001489832 0.0 0.0 0.0 29.24716389574793" Properties=species:S:1:pos:R:3:initial_magmoms:R:1 pbc="T T T"
Si      -1.40232466       1.23240367       1.48809862       0.00000000
Si       1.41929884      -1.36019872       1.37404053       0.00000000
Si      -0.73774153      -1.92205712      -1.24204516       0.00000000
Si       0.67686580       2.03892158      -1.15106659       0.00000000
Si       2.66719430       2.66997989       0.03562889       0.00000000
Si      -2.58910004      -2.75139732       0.05060052       0.00000000
Si      -2.74084140       2.62309727       0.11942202       0.00000000
Si      -1.14517072      -1.26296371      -3.45857072       0.00000000
Si       2.71679735      -2.74838367      -0.13265051       0.00000000
Si      -0.00447975       2.64662003       2.82954027       0.00000000
