10
Lattice="16.2900001489832 0.0 0.0 0.0 16.2900001489832 0.0 0.0 0.0 29.24716389574793" Properties=species:S:1:pos:R:3:initial_magmoms:R:1 pbc="T T T"
Si       1.77033206      -1.28339137       0.77250534       0.00000000
Si      -0.73236583       0.77700043       2.07131339       0.00000000
Si       0.68747059       2.10794231      -0.79993918       0.00000000
Si      -1.33722982      -1.60666642      -1.12352980       0.00000000
H        2.16595100       1.39574350       1.54234919       0.00000000
Si      -1.91493839      -2.60366330       0.97580238       0.00000000
Si      -2.41437350      -0.79115644       2.44158249       0.00000000
Si       3.47239272      -0.47187243      -0.49500825       0.00000000
Si       2.88613191       1.58177530      -1.56606864       0.00000000
Si       1.40903614      -3.38515977      -0.16822969       0.00000000
