10
Lattice="16.2900001489832 0.0 0.0 0.0 16.2900001489832 0.0 0.0 0.0 29.24716389574793" Properties=species:S:1:pos:R:3:initial_magmoms:R:1 pbc="T T T"
Si       1.28167603      -1.32317155       1.52272434       0.00000000
Si      -1.32468636      -1.38606724      -1.43288290       0.00000000
Si      -1.33764538       1.37484343       1.43372522       0.00000000
Si       1.35921644       1.40367673      -1.40002371       0.00000000
Si       2.62224531      -2.67963172       0.10283303       0.00000000
Si       2.63423475       2.70604595       0.11175341       0.00000000
Si      -2.70171770      -2.70352100       0.01327821       0.00000000
Si      -2.65643150       0.07695396      -2.74898773       0.00000000
Si      -2.71747013      -0.03880278       2.71788045       0.00000000
Si      -2.74537490       2.72025083       0.06615708       0.00000000
