10
Lattice="16.2900001489832 0.0 0.0 0.0 16.2900001489832 0.0 0.0 0.0 29.24716389574793" Properties=species:S:1:pos:R:3:initial_magmoms:R:1 pbc="T T T"
Si       1.44961453      -1.32398605      -1.30998340       0.00000000
Si      -1.30925989      -1.36824598       1.41904607       0.00000000
Si       1.36471105       1.35066907       1.39275287       0.00000000
Si      -1.36689391       1.29714013      -1.44442383       0.00000000
Si       0.18375120       2.55679697      -2.77452928       0.00000000
Si      -2.67299354       2.70402599      -0.01629360       0.00000000
Si       2.74564695       2.66286116      -0.01578469       0.00000000
Si      -2.70130556      -2.72267804       0.08460912       0.00000000
Si      -2.69938334      -0.00547344       2.76666764       0.00000000
Si       0.00695583       2.74186718       2.73051815       0.00000000
