10
Lattice="16.2900001489832 0.0 0.0 0.0 16.2900001489832 0.0 0.0 0.0 29.24716389574793" Properties=species:S:1:pos:R:3:initial_magmoms:R:1 pbc="T T T"
Si       1.78557950       1.12370050      -1.07375113       0.00000000
Si       1.18763875      -0.61569685       1.96169502       0.00000000
Si      -0.98583823      -1.81306073      -1.19904598       0.00000000
Si      -1.46163655       0.34950195       2.02276310       0.00000000
Si      -1.85438846       1.79240501       0.10034702       0.00000000
Si       0.44123094       2.31451580      -2.60987067       0.00000000
Si      -2.32447551      -0.47065068      -2.61683150       0.00000000
Si       3.38630007      -1.14186385       1.19556557       0.00000000
Si      -0.87017923       3.58919202      -1.10823353       0.00000000
Si      -3.13699465      -1.43397613       1.75880745       0.00000000
