10
Lattice="16.2900001489832 0.0 0.0 0.0 16.2900001489832 0.0 0.0 0.0 29.24716389574793" Properties=species:S:1:pos:R:3:initial_magmoms:R:1 pbc="T T T"
Si       1.93202660      -1.36661698       0.25424560       0.00000000
Si      -0.99202843       0.19658772       2.18116574       0.00000000
Si       1.26967519       2.01717443      -0.33736604       0.00000000
Si      -1.09040374      -0.38152809      -2.19573083       0.00000000
H       -1.25851654       3.04627890       1.03725067       0.00000000
Si       2.17202717       1.42351307      -2.39624939       0.00000000
Si      -0.93273283      -3.27616338       1.17471234       0.00000000
Si      -0.37875879       3.60175161      -0.07475575       0.00000000
Si       3.42824682      -0.17643699      -1.17272353       0.00000000
Si       0.63596161       0.28440711      -3.72576696       0.00000000
