10
Lattice="16.2900001489832 0.0 0.0 0.0 16.2900001489832 0.0 0.0 0.0 29.24716389574793" Properties=species:S:1:pos:R:3:initial_magmoms:R:1 pbc="T T T"
Si       0.60892021       0.11365517       1.38292290       0.00000000
H        0.64832572       1.48287041      -2.02375751       0.00000000
Si       0.22154400       2.31664474       2.10693644       0.00000000
H       -2.38991407      -0.28767016       2.09626123       0.00000000
Si       2.96693031      -0.14718520       1.22741573       0.00000000
Si      -0.00913869      -1.79757399       2.68500663       0.00000000
H       -3.05201949      -1.20025226       0.08926234       0.00000000
Si      -0.11733687       3.58376240       0.15006720       0.00000000
Si      -0.60316984      -3.41030029       0.96234868       0.00000000
Si       1.10245834       0.91020522      -3.37143757       0.00000000
