10
Lattice="16.2900001489832 0.0 0.0 0.0 16.2900001489832 0.0 0.0 0.0 29.24716389574793" Properties=species:S:1:pos:R:3:initial_magmoms:R:1 pbc="T T T"
H        1.14372091      -0.11412774      -0.97670904       0.00000000
Si      -1.49470525      -1.62052921      -0.76855697       0.00000000
Si      -1.33208218       1.76186126      -0.83524051       0.00000000
Si       0.72286876      -0.06509484       2.26220963       0.00000000
Si      -3.23595966      -0.90339454       0.63928451       0.00000000
Si       2.87542938      -1.76435363      -1.00326546       0.00000000
Si       2.76442932       2.24417558      -0.33879915       0.00000000
Si      -0.58608163      -3.62437305      -0.13254815       0.00000000
Si       3.71806221       0.10538001       0.12462217       0.00000000
Si      -2.41627943      -0.42054264       2.81468856       0.00000000
