10
Lattice="16.2900001489832 0.0 0.0 0.0 16.2900001489832 0.0 0.0 0.0 29.24716389574793" Properties=species:S:1:pos:R:3:initial_magmoms:R:1 pbc="T T T"
H        0.58924189      -1.34462548      -0.38188022       0.00000000
Si       1.45145530       0.95946472       1.55583213       0.00000000
Si      -0.41485743       1.06396507      -2.05613412       0.00000000
Si      -1.97522768      -0.60680251       1.14341787       0.00000000
H        2.87520132       0.38058327       1.53901501       0.00000000
Si      -1.46842948      -0.68224150      -3.21148483       0.00000000
Si      -2.51159222      -2.72246627       0.40211926       0.00000000
Si       1.71475058       3.21976740       0.80184025       0.00000000
Si       0.69701653       0.10914300       3.67145498       0.00000000
Si      -1.54860886      -0.55112329       3.47163835       0.00000000
