10
Lattice="16.2900001489832 0.0 0.0 0.0 16.2900001489832 0.0 0.0 0.0 29.24716389574793" Properties=species:S:1:pos:R:3:initial_magmoms:R:1 pbc="T T T"
Si      -1.48168954      -1.55382166      -0.89873610       0.00000000
Si       2.21710160      -0.54942913      -0.58766326       0.00000000
Si      -0.48193965       2.23710572      -0.61141196       0.00000000
Si      -0.56417158      -0.06742431       2.33050176       0.00000000
H       -3.23420034       0.62617132       0.06931578       0.00000000
Si      -3.26401104      -1.03728205       0.46435722       0.00000000
H        1.91163152      -1.94341331       2.18903323       0.00000000
Si      -2.83017576       1.99775675      -0.83061945       0.00000000
Si      -0.68365873      -3.50489127       0.01105543       0.00000000
Si       0.49866948       3.39602520       1.23206603       0.00000000
