10
Lattice="16.2900001489832 0.0 0.0 0.0 16.2900001489832 0.0 0.0 0.0 29.24716389574793" Properties=species:S:1:pos:R:3:initial_magmoms:R:1 pbc="T T T"
Si       2.20661084       0.62599213      -0.32376610       0.00000000
Si       0.14967252      -1.97477156      -1.22779594       0.00000000
Si      -1.23435847       1.76006936      -0.97278992       0.00000000
Si      -0.78547123      -0.33573690       2.23378139       0.00000000
H        3.10055718      -0.61045147      -0.36787083       0.00000000
Si       0.90411130      -1.12444984      -3.34341879       0.00000000
Si      -2.09595287      -2.63503784      -1.42761256       0.00000000
Si       2.73194706       1.87864427       1.54773067       0.00000000
Si      -0.85068010       3.49782141       0.69008683       0.00000000
Si      -3.51440463      -1.18731295      -0.19507858       0.00000000
