10
Lattice="16.2900001489832 0.0 0.0 0.0 16.2900001489832 0.0 0.0 0.0 29.24716389574793" Properties=species:S:1:pos:R:3:initial_magmoms:R:1 pbc="T T T"
Si       1.23435847      -1.76006936       0.97278992       0.00000000
Si      -2.21141639      -0.84620035      -0.20358951       0.00000000
Si       0.38367837       1.73775206       1.66287675       0.00000000
Si       0.50559273       0.47729700      -2.33752108       0.00000000
H       -2.51822225       1.43524675      -1.65866516       0.00000000
Si       3.44096931      -1.13407723       0.64902381       0.00000000
Si      -2.28004616      -2.94738231       0.77771134       0.00000000
Si      -0.09342315       3.81137133       0.55010991       0.00000000
Si       0.44888724      -2.09580626       3.20657131       0.00000000
H       -3.25335738       1.96182101       0.79727769       0.00000000
