10
Lattice="16.2900001489832 0.0 0.0 0.0 16.2900001489832 0.0 0.0 0.0 29.24716389574793" Properties=species:S:1:pos:R:3:initial_magmoms:R:1 pbc="T T T"
Si       1.89617231      -1.10151352      -0.78709967       0.00000000
Si      -1.71737327      -0.90966619      -1.35850152       0.00000000
Si      -0.48508362       1.99901108      -1.20705970       0.00000000
Si      -0.50559273      -0.47729700       2.33752108       0.00000000
H       -3.02381499       0.95794975       0.67885592       0.00000000
Si      -2.30363408       1.14398155      -2.42956190       0.00000000
Si       3.40547340      -0.56097874       0.90803670       0.00000000
Si       0.64542610       1.36363591      -3.37289993       0.00000000
Si      -2.71700912      -1.32349735       2.13393157       0.00000000
Si      -2.88414453       2.36833796       0.06264743       0.00000000
