10
Lattice="16.2900001489832 0.0 0.0 0.0 16.2900001489832 0.0 0.0 0.0 29.24716389574793" Properties=species:S:1:pos:R:3:initial_magmoms:R:1 pbc="T T T"
Si      -1.62496009       1.05303448       1.20571433       0.00000000
Si       1.08913312       1.52576984      -1.43071276       0.00000000
Si      -1.52362000      -1.31540122      -1.25002378       0.00000000
Si       1.82832446      -0.65190952       1.41804874       0.00000000
Si      -0.09531279       2.13444288       2.60057007       0.00000000
Si       2.64062531      -2.54558945       0.25684859       0.00000000
Si       2.24253029       2.22426268       1.90852368       0.00000000
Si       2.54153324       0.16009812      -2.68442169       0.00000000
Si      -0.16312806      -2.62071893      -2.63163056       0.00000000
H        0.71710210      -2.33492717       2.92951292       0.00000000
