10
Lattice="16.2900001489832 0.0 0.0 0.0 16.2900001489832 0.0 0.0 0.0 29.24716389574793" Properties=species:S:1:pos:R:3:initial_magmoms:R:1 pbc="T T T"
Si      -0.68747059      -2.10794231       0.79993918       0.00000000
Si      -1.18763875       0.61569685      -1.96169502       0.00000000
Si       2.19866132      -0.52616700      -0.76612946       0.00000000
Si       1.61815087       0.69818941       1.72607987       0.00000000
Si      -2.64927530       0.96519880       0.06106808       0.00000000
H        1.47848041      -0.71219881       2.34228837       0.00000000
Si      -2.01124487       0.90782542       2.46746623       0.00000000
Si      -1.41983641      -1.33094188       2.87125257       0.00000000
Si       0.59794075       1.73939735      -3.03544615       0.00000000
Si       2.78492214      -2.57981474       0.30493093       0.00000000
