10
Lattice="16.2900001489832 0.0 0.0 0.0 16.2900001489832 0.0 0.0 0.0 29.24716389574793" Properties=species:S:1:pos:R:3:initial_magmoms:R:1 pbc="T T T"
Si       1.00460431      -1.36331011       1.63585604       0.00000000
Si       0.82020151       2.03563100      -1.12197970       0.00000000
Si       0.45370908      -1.40178709      -1.98167084       0.00000000
Si      -1.77033206       1.31111695       1.16120015       0.00000000
H        1.81949528      -2.45515715       0.94699392       0.00000000
Si      -1.15175188       1.86279410      -2.38139183       0.00000000
Si      -1.41680647      -0.36924543      -3.01500238       0.00000000
Si       2.35465436       0.11085345       2.87322383       0.00000000
Si      -2.90325270       2.33041484      -0.89236022       0.00000000
Si      -0.46778364       2.64352493       2.78726934       0.00000000
