10
Lattice="16.2900001489832 0.0 0.0 0.0 16.2900001489832 0.0 0.0 0.0 29.24716389574793" Properties=species:S:1:pos:R:3:initial_magmoms:R:1 pbc="T T T"
Si       1.27277029       0.91131685      -1.77147147       0.00000000
Si      -2.19756989      -0.07856667      -0.88557488       0.00000000
Si       1.69588676      -1.67539394       0.14895581       0.00000000
Si       0.24290019       0.62507989       2.34974639       0.00000000
Si       2.60597648      -0.25524801       1.89132635       0.00000000
H       -2.69700500       0.93712803       2.00641394       0.00000000
Si      -3.05836608       2.09236744      -0.58544048       0.00000000
Si       0.36414666       2.91516069      -2.40748030       0.00000000
Si       1.60153507      -0.71781886      -3.42551558       0.00000000
Si       0.89888221      -3.61781355       1.08963234       0.00000000
