10
Lattice="16.2900001489832 0.0 0.0 0.0 16.2900001489832 0.0 0.0 0.0 29.24716389574793" Properties=species:S:1:pos:R:3:initial_magmoms:R:1 pbc="T T T"
Si      -1.41742549       1.38441055      -1.28054905       0.00000000
Si       1.34887717       1.38127798       1.36097583       0.00000000
Si      -1.38693061      -1.34464177       1.41783231       0.00000000
Si       1.32623407      -1.39960423      -1.43855393       0.00000000
Si       2.55883322      -2.65725740       0.16359109       0.00000000
Si       0.04411332       2.68758938      -2.63865791       0.00000000
Si      -2.75196747      -0.03104874      -2.57243079       0.00000000
H        0.85900429       1.59574235      -3.32752003       0.00000000
Si      -0.07068231       2.69566922       2.72915815       0.00000000
Si       2.72590851       2.69873174      -0.08518529       0.00000000
