10
Lattice="16.2900001489832 0.0 0.0 0.0 16.2900001489832 0.0 0.0 0.0 29.24716389574793" Properties=species:S:1:pos:R:3:initial_magmoms:R:1 pbc="T T T"
Si      -1.37834578       1.30519761      -1.36663223       0.00000000
Si       0.92466928       1.74944872       1.26435490       0.00000000
Si       1.45240012      -1.36567172      -1.25370893       0.00000000
Si      -1.08913312      -1.52576984       1.43071276       0.00000000
Si       1.15339717       0.69849284       3.33923644       0.00000000
Si       0.73919134      -2.17767936       2.84876150       0.00000000
Si      -2.65606823       2.60558596       0.14252143       0.00000000
Si       0.03663621      -2.73515575      -2.59042131       0.00000000
Si      -0.80741386       3.41746328       1.39824841       0.00000000
Si       0.03170034       2.65862620      -2.72381762       0.00000000
