10
Lattice="16.2900001489832 0.0 0.0 0.0 16.2900001489832 0.0 0.0 0.0 29.24716389574793" Properties=species:S:1:pos:R:3:initial_magmoms:R:1 pbc="T T T"
Si      -1.87051556       1.03254166      -1.03333155       0.00000000
Si       1.97232806       0.90284068      -1.00159837       0.00000000
Si      -0.20950569      -2.26903249      -0.77855950       0.00000000
Si      -0.45370908       1.40178709       1.98167084       0.00000000
H        1.36578619      -1.05337005       2.92866476       0.00000000
Si       0.36649242       3.43741809       0.85969114       0.00000000
Si       1.12467790       1.20301651      -3.17091902       0.00000000
Si       0.55089523       0.03847698       3.61752688       0.00000000
Si      -1.60546096       3.26458119      -0.39972099       0.00000000
Si      -0.87731425      -2.31460540      -3.05486627       0.00000000
