10
Lattice="16.2900001489832 0.0 0.0 0.0 16.2900001489832 0.0 0.0 0.0 29.24716389574793" Properties=species:S:1:pos:R:3:initial_magmoms:R:1 pbc="T T T"
Si       1.34863282      -1.21456612      -1.47689404       0.00000000
Si       1.73830592       0.86400532       1.35446541       0.00000000
Si      -1.36813195       1.53894889      -1.23727202       0.00000000
Si      -0.89428843      -1.80605603       1.30875209       0.00000000
Si       0.35670213       0.51378660       3.24286704       0.00000000
Si       2.65136042      -2.45315999       0.07332264       0.00000000
Si       0.83779471      -3.47407059       1.17485857       0.00000000
Si      -2.74294281      -2.61793334       0.05302511       0.00000000
Si      -0.05517423      -2.56489310      -2.81331394       0.00000000
Si      -2.74553292       0.20377161      -2.66134568       0.00000000
