10
Lattice="16.2900001489832 0.0 0.0 0.0 16.2900001489832 0.0 0.0 0.0 29.24716389574793" Properties=species:S:1:pos:R:3:initial_magmoms:R:1 pbc="T T T"
Si      -1.50930109      -0.54053478      -1.69513637       0.00000000
Si       0.46490031       2.29630358       0.02281279       0.00000000
Si       1.91168039      -1.01546974      -0.91520225       0.00000000
Si      -0.47009682      -1.05039550       2.07850820       0.00000000
H        0.41342391       2.64108143      -1.46902655       0.00000000
H        0.42384951      -2.28683909       2.03440347       0.00000000
H        1.70232131      -0.91264726      -2.43389049       0.00000000
Si      -1.77259637      -2.80083747      -0.94114449       0.00000000
H        2.62889651       0.56182582       2.15925962       0.00000000
H       -0.34885035      -3.37971891      -0.95796161       0.00000000
