10
Lattice="16.2900001489832 0.0 0.0 0.0 16.2900001489832 0.0 0.0 0.0 29.24716389574793" Properties=species:S:1:pos:R:3:initial_magmoms:R:1 pbc="T T T"
Si      -1.03766975       1.42838866      -1.64342739       0.00000000
Si       2.28447704      -0.76207879      -0.18443262       0.00000000
Si      -0.27196155       1.61958439       1.82254667       0.00000000
Si      -1.10116817      -2.16148754       0.46856881       0.00000000
Si      -2.59529024      -1.24717870       1.95523316       0.00000000
Si      -1.23903370       0.06664239       3.29548854       0.00000000
Si       3.61594020       1.00774828      -1.03005587       0.00000000
Si      -2.14681188       0.12035052      -3.33815430       0.00000000
Si       0.50137362       3.02704041      -2.56895389       0.00000000
Si       3.18448326      -1.57211533       1.92925992       0.00000000
