10
Lattice="16.2900001489832 0.0 0.0 0.0 16.2900001489832 0.0 0.0 0.0 29.24716389574793" Properties=species:S:1:pos:R:3:initial_magmoms:R:1 pbc="T T T"
Si      -1.29329569       1.38966733      -1.38327386       0.00000000
Si       1.42680853      -1.36331011      -1.27624972       0.00000000
Si      -1.36845775      -1.40359528       1.30340278       0.00000000
Si       1.33859818       1.34649883       1.40085433       0.00000000
Si      -2.48438792      -0.10730223      -2.69986478       0.00000000
Si       2.65215863       0.10906155      -2.56070151       0.00000000
Si      -2.64679922      -0.00154755       2.71729843       0.00000000
Si      -2.68710068       2.70602966      -0.01680250       0.00000000
Si       2.63946872       2.77114080       0.06059720       0.00000000
Si       2.66294261      -0.04639392       2.77371621       0.00000000
