10
Lattice="16.2900001489832 0.0 0.0 0.0 16.2900001489832 0.0 0.0 0.0 29.24716389574793" Properties=species:S:1:pos:R:3:initial_magmoms:R:1 pbc="T T T"
Si       1.32370912      -1.38378664      -1.35870625       0.00000000
Si      -1.28889739      -1.41133303       1.38950351       0.00000000
Si      -1.32118417       1.35347095      -1.44472216       0.00000000
Si       1.41576391       1.36948402       1.33671238       0.00000000
Si       2.62457966       0.04085532      -2.69896338       0.00000000
Si      -0.03663621       2.73515575       2.59042131       0.00000000
Si      -2.66168828      -2.73183303      -0.04226215       0.00000000
Si      -2.64938933      -0.10601532       2.77111028       0.00000000
Si       2.64805355      -2.77667940       0.01415563       0.00000000
Si      -2.76470625       2.66708027      -0.09139739       0.00000000
