10
Lattice="16.2900001489832 0.0 0.0 0.0 16.2900001489832 0.0 0.0 0.0 29.24716389574793" Properties=species:S:1:pos:R:3:initial_magmoms:R:1 pbc="T T T"
Si      -1.48769567       1.20101284      -1.35253509       0.00000000
Si       1.43324308      -1.47483145      -1.16175584       0.00000000
Si       1.33722982       1.60666642       1.12352980       0.00000000
Si      -0.57770857      -0.99699688       2.09933218       0.00000000
Si       2.74626597      -1.77849335       0.95530011       0.00000000
Si       3.10756188       0.32327505       1.89603514       0.00000000
Si      -2.29993299       2.89632945       0.12070305       0.00000000
Si       1.18952839      -2.50515767       2.51946769       0.00000000
Si      -0.14877657       2.51724485      -2.83715038       0.00000000
Si      -1.07714368       0.81550999       3.56511229       0.00000000
