10
Lattice="16.2900001489832 0.0 0.0 0.0 16.2900001489832 0.0 0.0 0.0 29.24716389574793" Properties=species:S:1:pos:R:3:initial_magmoms:R:1 pbc="T T T"
Si       0.84944206      -1.21345840       1.84964914       0.00000000
Si      -1.26104149      -1.64460583      -1.19193892       0.00000000
Si      -0.99393436       1.78893524       1.26543704       0.00000000
Si       1.55422891       1.25566579      -1.34949339       0.00000000
Si       1.98781985       0.50736834       3.03032790       0.00000000
Si      -1.41740920       3.54880911      -0.26755306       0.00000000
Si       3.27554436      -0.21988242      -2.08789654       0.00000000
Si       0.39760632       1.96245632      -3.35397701       0.00000000
Si      -0.83829970      -2.38482344       2.98420512       0.00000000
Si       0.51329790       2.43012593       3.02292837       0.00000000
