10
Lattice="16.2900001489832 0.0 0.0 0.0 16.2900001489832 0.0 0.0 0.0 29.24716389574793" Properties=species:S:1:pos:R:3:initial_magmoms:R:1 pbc="T T T"
Si       0.27929205      -0.71671114       2.17703400       0.00000000
Si      -1.58944789       1.73460809       0.14971623       0.00000000
Si       2.24000534       0.55452790      -0.82032445       0.00000000
Si      -0.44466813      -2.26932734      -0.81690253       0.00000000
H       -0.20100231       0.73889812      -2.45930627       0.00000000
Si       3.02258183      -1.69909589      -0.76376044       0.00000000
Si       2.05289840      -2.35989974       1.83683888       0.00000000
Si       1.42809544      -2.50846454      -2.25972362       0.00000000
Si       1.04179438       1.14243400       3.40633529       0.00000000
Si      -1.40828680       0.93217897      -3.35561486       0.00000000
