10
Lattice="16.2900001489832 0.0 0.0 0.0 16.2900001489832 0.0 0.0 0.0 29.24716389574793" Properties=species:S:1:pos:R:3:initial_magmoms:R:1 pbc="T T T"
Si      -1.46870478      -1.76725325       0.48056015       0.00000000
Si       1.76723696      -1.50816079       0.42013551       0.00000000
Si      -0.49943511       1.81250687       1.46578011       0.00000000
Si       0.57770857       0.99699688      -2.09933218       0.00000000
Si       1.91493839       2.60366330      -0.97580238       0.00000000
Si       3.32397453      -0.78149647      -1.14403206       0.00000000
Si       1.18257256       3.38066373       1.09551102       0.00000000
Si      -2.18208820       3.07146324       0.28477963       0.00000000
Si      -3.67104927      -0.88570360       0.35430014       0.00000000
Si       1.07699707      -3.67650642      -0.12055681       0.00000000
