10
Lattice="16.2900001489832 0.0 0.0 0.0 16.2900001489832 0.0 0.0 0.0 29.24716389574793" Properties=species:S:1:pos:R:3:initial_magmoms:R:1 pbc="T T T"
Si      -1.35578413       1.57731184      -1.00048698       0.00000000
Si       2.04022478      -0.72523081      -0.87732718       0.00000000
Si      -1.65797341      -1.61057602      -0.45912198       0.00000000
Si       0.22520925       0.86112199       2.20909678       0.00000000
H        1.95069494       1.88683814       0.03775809       0.00000000
Si      -2.83486728       1.46552986       0.87802911       0.00000000
Si       2.17313489       2.05913747       1.53810835       0.00000000
Si      -3.04160367      -0.88643665       1.32384363       0.00000000
Si       1.05764455      -2.45684153      -2.22164382       0.00000000
Si       3.19684737      -1.43202133       1.12715645       0.00000000
