10
Lattice="16.2900001489832 0.0 0.0 0.0 16.2900001489832 0.0 0.0 0.0 29.24716389574793" Properties=species:S:1:pos:R:3:initial_magmoms:R:1 pbc="T T T"
Si      -1.14571481      -0.67914640      -1.96216298       0.00000000
Si       1.91436172      -1.28355427      -0.63109530       0.00000000
Si       0.03783353       2.39656853      -0.21499590       0.00000000
Si      -0.43778398      -1.03123846       2.13618360       0.00000000
H       -2.87879163      -0.84686824       0.49720179       0.00000000
Si      -1.35245120      -3.03111291      -1.51634846       0.00000000
Si       1.48451749       2.64719018      -2.10266635       0.00000000
Si       1.08347723       0.11473047       3.59172721       0.00000000
Si       0.33336834      -0.56736442      -3.84067907       0.00000000
Si      -2.14903221       3.28987956      -0.26907391       0.00000000
