10
Lattice="16.2900001489832 0.0 0.0 0.0 16.2900001489832 0.0 0.0 0.0 29.24716389574793" Properties=species:S:1:pos:R:3:initial_magmoms:R:1 pbc="T T T"
Si       1.39997239       1.38623014       1.25552225       0.00000000
Si      -1.32434443       1.39289275      -1.37286187       0.00000000
Si       1.45709327      -1.29534823      -1.34534029       0.00000000
Si      -1.37262799      -1.32209641       1.50096445       0.00000000
Si      -2.64396476      -2.66106926      -0.02114570       0.00000000
Si       2.73860967       0.04382010       2.67330777       0.00000000
Si      -2.64805355       2.77667940      -0.01415563       0.00000000
Si       0.10566786       2.72399753       2.70106333       0.00000000
Si       0.19812941      -2.65202831      -2.76910978       0.00000000
Si      -2.66294261       0.04639392      -2.77371621       0.00000000
