10
Lattice="10.86 0.0 0.0 0.0 10.86 0.0 0.0 0.0 10.86" Properties=species:S:1:pos:R:3:initial_magmoms:R:1 pbc="T T T"
Si       1.39512990      -1.30833678      -1.25333088       0.00000000
Si      -1.36588392      -1.19471946       1.43392182       0.00000000
Si      -1.36588392       1.52028054      -1.28107818       0.00000000
Si       1.34911608       1.52028054       1.43392182       0.00000000
Si      -2.72338392      -2.55221946       0.07642182       0.00000000
Si       2.74661346      -2.56628316       0.11739660       0.00000000
Si      -0.00838392      -2.55221946       2.79142182       0.00000000
Si      -2.72338392       0.16278054      -2.63857818       0.00000000
Si       0.08772708       2.89211574      -2.57447160       0.00000000
Si       2.70661608       0.16278054       2.79142182       0.00000000
