10
Lattice="10.86 0.0 0.0 0.0 10.86 0.0 0.0 0.0 10.86" Properties=species:S:1:pos:R:3:initial_magmoms:R:1 pbc="T T T"
Si      -0.99599232      -1.63454946       1.10037864       0.00000000
Si      -1.20804468       0.99839238      -1.66237278       0.00000000
Si      -2.48842782       2.37437610      -0.21691764       0.00000000
Si       0.12902766       2.45081964       2.58034686       0.00000000
Si      -2.62069176      -0.48530082       2.41832652       0.00000000
Si       2.91350994       2.39386980      -0.22127250       0.00000000
Si       0.19689180       2.44369548      -2.97588978       0.00000000
Si      -2.55193710      -0.23768196      -2.98591356       0.00000000
Si       0.16097778      -3.10422240       2.45747682       0.00000000
Si      -1.20035580       3.71154618       1.06793982       0.00000000
