10
Lattice="10.86 0.0 0.0 0.0 10.86 0.0 0.0 0.0 10.86" Properties=species:S:1:pos:R:3:initial_magmoms:R:1 pbc="T T T"
Si       1.06935162      -1.10080218      -1.58099880       0.00000000
Si       1.06935162       1.61419782       1.13400120       0.00000000
Si      -1.64564838      -1.10080218       1.13400120       0.00000000
Si       2.42685162      -2.45830218      -0.22349880       0.00000000
Si       2.42685162       0.25669782       2.49150120       0.00000000
Si      -0.28814838      -2.45830218       2.49150120       0.00000000
Si      -0.12832176      -2.47628634      -2.87204646       0.00000000
Si       2.42685162       0.25669782      -2.93849880       0.00000000
Si       2.42685162       2.97169782      -0.22349880       0.00000000
Si      -0.28814838       2.97169782       2.49150120       0.00000000
