10
Lattice="10.86 0.0 0.0 0.0 10.86 0.0 0.0 0.0 10.86" Properties=species:S:1:pos:R:3:initial_magmoms:R:1 pbc="T T T"
Si       1.35750000       1.35750000       1.35750000       0.00000000
Si      -1.35750000      -1.35750000       1.35750000       0.00000000
Si       1.35750000      -1.35750000      -1.35750000       0.00000000
Si      -1.35750000       1.35750000      -1.35750000       0.00000000
Si       2.43062004      -2.83279842       0.29563092       0.00000000
Si      -0.01889640      -2.66940972      -2.63758992       0.00000000
Si       0.07382628      -2.82046146       2.49368406       0.00000000
Si      -0.06560526       2.65930992      -2.69728734       0.00000000
Si      -2.84636256       2.52363594      -0.24694554       0.00000000
Si       0.06918906       2.64619104       2.74661346       0.00000000
