10
Lattice="16.28999089631971 0.0 0.0 0.0 16.28999089631971 0.0 0.0 0.0 34.48637585096406" Properties=species:S:1:pos:R:3:initial_magmoms:R:1 pbc="T T T"
Si      -0.72627010      -1.82966999       1.39618726       0.00000000
Si      -1.03676728      -0.26406090      -2.21761592       0.00000000
Si       2.01513816       0.96661602       1.16850808       0.00000000
Si      -1.70781917       1.95730866      -0.00234004       0.00000000
Si      -2.06162072      -0.46902168       2.72150632       0.00000000
Si       0.66380121       2.27691846       2.68339196       0.00000000
Si      -3.29602805       0.83499282       1.25518963       0.00000000
Si      -3.10893740      -1.33850043      -1.47067508       0.00000000
Si      -2.34485495      -3.00850562       0.16152465       0.00000000
Si      -0.63150629       1.79817165      -3.39173972       0.00000000
