10
Lattice="16.28999089631971 0.0 0.0 0.0 16.28999089631971 0.0 0.0 0.0 34.48637585096406" Properties=species:S:1:pos:R:3:initial_magmoms:R:1 pbc="T T T"
Si      -1.64296053       0.06035445      -1.77680805       0.00000000
Si      -0.39578184       1.40582700       1.94372220       0.00000000
Si       0.59186457      -2.17815938       0.93847827       0.00000000
Si       2.29628727       0.36312039      -0.80011885       0.00000000
Si       3.25954755      -0.00591327       1.26440919       0.00000000
Si       1.88866260       1.28733354       2.69218044       0.00000000
Si       1.29393099      -3.49887113      -0.99044927       0.00000000
Si      -0.30358044       0.10928961      -3.98535128       0.00000000
Si       2.88930843      -2.26483847       1.63706918       0.00000000
Si      -1.70629605       0.30555153       3.65728220       0.00000000
