10
Lattice="16.28999089631971 0.0 0.0 0.0 16.28999089631971 0.0 0.0 0.0 34.48637585096406" Properties=species:S:1:pos:R:3:initial_magmoms:R:1 pbc="T T T"
Si       2.28444444      -0.11849346       0.74845823       0.00000000
Si      -1.31051421      -1.10027547       1.71356000       0.00000000
Si       0.39578184      -1.40582700      -1.94372220       0.00000000
Si      -0.49445037       2.11874256       1.09201170       0.00000000
Si      -2.74621707       1.24235685      -1.22516367       0.00000000
Si      -1.77381810       1.00219338       2.74315133       0.00000000
Si       2.20323879      -0.80537760       3.00386847       0.00000000
Si       0.98764641      -3.58398638      -1.00524393       0.00000000
Si       1.49459121       3.11375205       1.93185888       0.00000000
Si       3.65532939      -1.41174027      -0.67931301       0.00000000
