10
Lattice="16.28999089631971 0.0 0.0 0.0 16.28999089631971 0.0 0.0 0.0 34.48637585096406" Properties=species:S:1:pos:R:3:initial_magmoms:R:1 pbc="T T T"
Si       0.91152324       1.88072937      -1.04993726       0.00000000
Si       1.30795668      -1.32527295       1.44162098       0.00000000
Si      -1.42293150       1.36539522       1.44087952       0.00000000
Si      -0.79710228      -1.95678738      -1.34926094       0.00000000
Si       2.68674228      -2.67512751      -0.00726628       0.00000000
Si      -2.77306299      -2.62161486      -0.08205003       0.00000000
Si       2.64870513       0.02601513       2.81609005       0.00000000
Si      -0.06638175      -2.68824096       2.80888240       0.00000000
Si      -2.64495843       2.86526439       0.07441129       0.00000000
Si      -0.06592563       2.74219344       2.80902034       0.00000000
