10
Lattice="16.28999089631971 0.0 0.0 0.0 16.28999089631971 0.0 0.0 0.0 34.48637585096406" Properties=species:S:1:pos:R:3:initial_magmoms:R:1 pbc="T T T"
Si       2.18212695      -0.83856033       0.02772706       0.00000000
Si      -2.11999689      -0.41578596       1.11470375       0.00000000
Si       0.52787745       1.96468803       1.36490255       0.00000000
Si      -0.66259575       0.37424646      -2.39463182       0.00000000
Si      -3.07806066       1.30608333      -0.17201814       0.00000000
Si      -1.48131486       2.98155870       0.44415028       0.00000000
Si       3.25081611       0.75882078      -1.44435920       0.00000000
Si      -3.07727874      -0.02557530      -2.15208900       0.00000000
Si       3.52194687      -0.65956581       1.94151507       0.00000000
Si      -2.27087487       0.32648418       3.37980467       0.00000000
