10
Lattice="16.28999089631971 0.0 0.0 0.0 16.28999089631971 0.0 0.0 0.0 34.48637585096406" Properties=species:S:1:pos:R:3:initial_magmoms:R:1 pbc="T T T"
Si       0.73733427      -1.98666324      -0.97593050       0.00000000
Si      -2.18212695       0.83856033      -0.02772706       0.00000000
Si       1.33981992       0.17899452       1.91378801       0.00000000
Si       1.06868916       1.59738111      -1.47208626       0.00000000
Si      -1.65424950       2.80324836       1.33717548       0.00000000
Si       2.03519115       2.45498445       1.86036858       0.00000000
Si       3.17461149      -1.28011707       1.43532377       0.00000000
Si       3.35580516       0.99746928      -1.35014237       0.00000000
Si       3.37634685      -1.36886499      -1.01124456       0.00000000
Si       0.00920385      -3.91497570       0.11990920       0.00000000
