10
Lattice="16.28999089631971 0.0 0.0 0.0 16.28999089631971 0.0 0.0 0.0 34.48637585096406" Properties=species:S:1:pos:R:3:initial_magmoms:R:1 pbc="T T T"
Si      -1.27936773      -1.11654918       1.65113963       0.00000000
Si       1.98904158       0.99500949       0.83984718       0.00000000
Si      -1.27568619       1.91857104      -0.60368435       0.00000000
Si       0.49445037      -2.11874256      -1.09201170       0.00000000
Si      -1.12480821       1.17630090      -2.86878526       0.00000000
Si      -2.25176670      -0.87638571      -2.31717537       0.00000000
Si      -0.81606384      -3.21901803       0.62154830       0.00000000
Si       2.77889481      -2.23723602      -0.34355347       0.00000000
Si      -0.14999832       3.52707822       0.74483716       0.00000000
Si       1.53645651       0.69690249       3.21451138       0.00000000
