10
Lattice="16.28999089631971 0.0 0.0 0.0 16.28999089631971 0.0 0.0 0.0 34.48637585096406" Properties=species:S:1:pos:R:3:initial_magmoms:R:1 pbc="T T T"
Si       1.15525422      -1.63848078       1.30444790       0.00000000
Si      -1.11808044      -0.86552028      -1.94637765       0.00000000
Si       2.21850252       0.54819108      -1.06938863       0.00000000
Si      -2.16824787      -0.13940982       1.32365682       0.00000000
Si       0.14072931       2.81733921      -0.34065661       0.00000000
Si       0.63952911      -2.86208784      -1.58354629       0.00000000
Si      -1.22023503      -2.13760638       2.31376122       0.00000000
Si      -2.27659266       2.78052381      -0.43666674       0.00000000
Si      -2.30221683       2.14127163       1.81288082       0.00000000
Si      -2.72473056       1.15263153      -2.14326048       0.00000000
