10
Lattice="16.28999089631971 0.0 0.0 0.0 16.28999089631971 0.0 0.0 0.0 34.48637585096406" Properties=species:S:1:pos:R:3:initial_magmoms:R:1 pbc="T T T"
Si      -0.04233771       0.10669950      -2.33003880       0.00000000
Si      -1.97596071      -0.66482748       1.26721091       0.00000000
Si       0.79710228       1.95678738       1.34926094       0.00000000
Si       1.87802523      -1.86070896       0.02279551       0.00000000
Si      -0.64324323      -2.09109843       2.77966004       0.00000000
Si       2.10505896       0.63151443       2.79088192       0.00000000
Si       0.76217652      -3.42734269       1.37870197       0.00000000
Si       3.48384456      -0.71834013       1.34199465       0.00000000
Si      -0.99035055       2.10489606      -3.32014320       0.00000000
Si      -0.35158707      -2.35059813      -3.36280287       0.00000000
