10
Lattice="16.28999089631971 0.0 0.0 0.0 16.28999089631971 0.0 0.0 0.0 34.48637585096406" Properties=species:S:1:pos:R:3:initial_magmoms:R:1 pbc="T T T"
Si      -1.23201270      -1.97921138      -0.53633242       0.00000000
Si       1.64296053      -0.06035445       1.77680805       0.00000000
Si      -1.97148096       1.33983621       0.53678074       0.00000000
Si       1.33938009       0.04893516      -2.20854323       0.00000000
Si      -2.95446354      -1.11113764      -1.96158615       0.00000000
Si      -2.14635411       1.12607883      -3.00993808       0.00000000
Si       0.23486922      -3.47995844      -1.69821356       0.00000000
Si      -1.49903838       2.58782940       2.49536658       0.00000000
Si       1.98004950      -2.12940341      -2.69738788       0.00000000
Si      -2.45787430       2.88267840      -1.20492016       0.00000000
