10
Lattice="16.28999089631971 0.0 0.0 0.0 16.28999089631971 0.0 0.0 0.0 34.48637585096406" Properties=species:S:1:pos:R:3:initial_magmoms:R:1 pbc="T T T"
Si      -1.35824391      -1.33900542       1.37445183       0.00000000
Si       1.35700587       1.37679822       1.36814082       0.00000000
Si      -1.22202693       1.49986917      -1.36646823       0.00000000
Si       1.42293150      -1.36539522      -1.44087952       0.00000000
Si       2.33445474       0.51533415      -2.49081679       0.00000000
Si       0.67605129       2.38049028      -2.55575191       0.00000000
Si      -2.70146844      -2.67670764      -0.00804568       0.00000000
Si       2.73088818      -2.69066817       0.00074146       0.00000000
Si      -0.00003258      -2.69350263       2.73087072       0.00000000
Si      -2.71265967       0.01874979       2.73090521       0.00000000
