10
Lattice="16.28999089631971 0.0 0.0 0.0 16.28999089631971 0.0 0.0 0.0 34.48637585096406" Properties=species:S:1:pos:R:3:initial_magmoms:R:1 pbc="T T T"
Si      -1.34394129      -1.33087671      -1.38065248       0.00000000
Si      -1.35394335       1.35654975       1.35497046       0.00000000
Si       1.35812988      -1.35630540       1.35590160       0.00000000
Si       1.34477208       1.36029645      -1.38683589       0.00000000
Si       0.13628214      -2.59208109      -2.74229951       0.00000000
Si      -2.71383907      -0.00076563       2.71259638       0.00000000
Si       0.00076563      -2.71438641       2.71214806       0.00000000
Si       0.00100998       2.71554300       2.71190665       0.00000000
Si      -2.71361264       2.71477737      -0.00648344       0.00000000
Si       2.71604799       0.00008145       2.71276881       0.00000000
