10
Lattice="16.28999089631971 0.0 0.0 0.0 16.28999089631971 0.0 0.0 0.0 34.48637585096406" Properties=species:S:1:pos:R:3:initial_magmoms:R:1 pbc="T T T"
Si       1.23201270       1.97921138       0.53633242       0.00000000
Si      -1.72245084       0.86807374      -1.42525374       0.00000000
Si       1.46688192      -1.50074706      -1.16188114       0.00000000
Si      -0.77496417      -1.32067740       1.89330309       0.00000000
Si      -0.73946826       3.31904759       1.07311316       0.00000000
Si      -2.64753944       1.80525047       1.59420259       0.00000000
Si      -3.57514091       0.21505651       0.03786606       0.00000000
Si       2.23756182      -2.79505272       0.74000907       0.00000000
Si       2.57139279       2.02814654      -1.67221081       0.00000000
Si      -1.85609074       0.30667635       3.24923918       0.00000000
