10
Lattice="16.28999089631971 0.0 0.0 0.0 16.28999089631971 0.0 0.0 0.0 34.48637585096406" Properties=species:S:1:pos:R:3:initial_magmoms:R:1 pbc="T T T"
Si       1.12431951       1.66829148      -1.22837091       0.00000000
Si      -1.29992571       1.12568787       1.67593534       0.00000000
Si      -1.83604590      -1.24607097      -1.09035635       0.00000000
Si       1.55983266      -2.10595491       0.04834993       0.00000000
Si       2.29327362       0.10073736      -2.49360777       0.00000000
Si      -1.65605769      -0.91160469       2.89978853       0.00000000
Si       1.78833249       1.67286897       2.52112792       0.00000000
Si      -0.46043685      -2.61812880      -2.48850379       0.00000000
Si       1.97837163      -0.63022752       3.01762855       0.00000000
Si       2.43727722       2.79272502       0.44911632       0.00000000
