10
Lattice="16.28999089631971 0.0 0.0 0.0 16.28999089631971 0.0 0.0 0.0 34.48637585096406" Properties=species:S:1:pos:R:3:initial_magmoms:R:1 pbc="T T T"
Si      -0.90031150      -1.57872321      -1.46925838       0.00000000
Si       1.72245084      -0.86807374       1.42525374       0.00000000
Si      -1.85269006      -0.65301723       1.46311980       0.00000000
Si       0.80810943       2.23721647      -1.04835193       0.00000000
Si      -0.92508859       0.93717673       3.01945633       0.00000000
Si      -2.36038420       0.15218118      -2.58710039       0.00000000
Si       0.98298258       2.45097385       2.49836689       0.00000000
Si       2.95446354       1.11113764       1.96158615       0.00000000
Si       2.90184684       0.95077888      -2.39694241       0.00000000
Si      -1.54539550      -3.58734537      -0.17557024       0.00000000
