10
Lattice="16.28999089631971 0.0 0.0 0.0 16.28999089631971 0.0 0.0 0.0 34.48637585096406" Properties=species:S:1:pos:R:3:initial_magmoms:R:1 pbc="T T T"
Si      -0.02562417      -0.63925218       2.24954755       0.00000000
Si       1.13355594       2.05701975      -0.25623392       0.00000000
Si      -0.44813790      -1.62789228      -1.70659375       0.00000000
Si       2.41732197       0.03681540       0.09601012       0.00000000
Si       0.10834479      -2.91993363       1.76032355       0.00000000
Si       1.40519169       1.04132196       3.04073443       0.00000000
Si       0.79985529       3.01068522       1.83588324       0.00000000
Si       2.27659266      -2.78052381       0.43666674       0.00000000
Si      -3.47204408       0.53537085       1.37238609       0.00000000
Si      -2.57162085      -2.53832409      -1.18084866       0.00000000
