10
Lattice="16.28999089631971 0.0 0.0 0.0 16.28999089631971 0.0 0.0 0.0 34.48637585096406" Properties=species:S:1:pos:R:3:initial_magmoms:R:1 pbc="T T T"
Si      -0.82945422      -1.85810256      -1.16408103       0.00000000
Si       1.22142420      -1.48379094       1.40797605       0.00000000
Si      -1.51904250       1.21365387       1.38066628       0.00000000
Si       0.89537985       1.82151522      -1.37929514       0.00000000
Si       2.58784569       2.62542672      -0.01026660       0.00000000
Si      -0.14981913       2.57085522       2.76119116       0.00000000
Si       2.56761351      -0.15275133       2.76529504       0.00000000
Si      -0.57317994      -1.49462379      -3.43820190       0.00000000
Si      -2.85391026       2.54904291      -0.23357291       0.00000000
Si      -2.72753244      -2.73872367       0.02520266       0.00000000
