10
Lattice="16.28999089631971 0.0 0.0 0.0 16.28999089631971 0.0 0.0 0.0 34.48637585096406" Properties=species:S:1:pos:R:3:initial_magmoms:R:1 pbc="T T T"
Si       0.80316216      -2.13201632       0.56950833       0.00000000
Si      -1.06065005      -0.74816549      -2.00790138       0.00000000
Si      -2.15486468       0.33605456       0.98527631       0.00000000
Si       1.96411788       1.16956661       0.71328211       0.00000000
Si      -2.89408859      -1.29111023      -0.58564796       0.00000000
Si       0.54400455      -1.97320511       2.96693355       0.00000000
Si       2.78456373      -2.66704508      -0.66672548       0.00000000
Si       1.50081399       3.27203546       1.74287344       0.00000000
Si      -2.44344203      -3.09196973       0.88885235       0.00000000
Si      -0.57640536      -3.99899693      -0.12722031       0.00000000
