10
Lattice="16.28999089631971 0.0 0.0 0.0 16.28999089631971 0.0 0.0 0.0 34.48637585096406" Properties=species:S:1:pos:R:3:initial_magmoms:R:1 pbc="T T T"
Si      -0.78680700      -0.79319268       2.05583747       0.00000000
Si      -1.74364902       0.63662949      -1.42790919       0.00000000
Si       1.48287870       1.72449265       0.70728148       0.00000000
Si      -1.25283132      -1.74724911      -1.28627357       0.00000000
Si       2.74308939      -1.16567982      -0.62806623       0.00000000
Si       0.96738165      -2.86000272      -0.62948017       0.00000000
Si      -0.60388659      -0.62739306      -3.35828516       0.00000000
Si      -3.48882930      -0.71392554      -0.42873486       0.00000000
Si       1.28774079      -1.25525853       3.10553437       0.00000000
Si       1.63243719       2.95279775      -1.35238398       0.00000000
