10
Lattice="16.28999089631971 0.0 0.0 0.0 16.28999089631971 0.0 0.0 0.0 34.48637585096406" Properties=species:S:1:pos:R:3:initial_magmoms:R:1 pbc="T T T"
Si      -2.30624046       0.45906849       0.09787239       0.00000000
Si       0.51046344      -2.30106024       0.40824995       0.00000000
Si       1.04673024      -0.06239070      -2.15681364       0.00000000
Si       1.00095534       1.57727925       1.55623307       0.00000000
Si      -2.52213183       0.91531881       2.40114975       0.00000000
Si       3.27200940      -0.44253414      -1.46815481       0.00000000
Si       2.64039723      -2.52325584      -0.59364881       0.00000000
Si       1.79155791       3.41493786       0.23067950       0.00000000
Si       3.10293549       0.84760128       2.23437354       0.00000000
Si      -1.13327901      -3.73997223      -0.61409924       0.00000000
