10
Lattice="16.28999089631971 0.0 0.0 0.0 16.28999089631971 0.0 0.0 0.0 34.48637585096406" Properties=species:S:1:pos:R:3:initial_magmoms:R:1 pbc="T T T"
Si      -2.30277069       0.30156048      -0.36503849       0.00000000
Si       1.86854445       1.47445418       0.12777209       0.00000000
Si      -0.48005001      -0.45893817       2.30934696       0.00000000
Si       0.84048255      -1.29044493      -1.89144083       0.00000000
Si      -2.68260462      -1.95240537      -1.04652415       0.00000000
Si       1.55455470       2.55535921      -1.96265523       0.00000000
Si       1.63108512       0.54721368      -3.21699440       0.00000000
Si       3.71286567       0.01793529      -0.18829572       0.00000000
Si       2.94246270      -2.02012290      -1.21330035       0.00000000
Si      -2.55406023       2.39536535      -1.52116040       0.00000000
