10
Lattice="16.28999089631971 0.0 0.0 0.0 16.28999089631971 0.0 0.0 0.0 34.48637585096406" Properties=species:S:1:pos:R:3:initial_magmoms:R:1 pbc="T T T"
Si       1.69246584       0.80391150       1.36902854       0.00000000
Si       1.22986242       0.51175035      -1.96182756       0.00000000
Si      -0.89537985      -1.82151522       1.37929514       0.00000000
Si      -1.78580754       1.76443506      -0.12249568       0.00000000
Si       0.31980528       2.11134690       2.78082913       0.00000000
Si       2.89422801       2.30104788       0.00310378       0.00000000
Si      -2.41442235      -0.60786135       2.75996142       0.00000000
Si      -0.50205780       0.61181982      -3.63638345       0.00000000
Si       1.29239973       3.16383633      -1.64679434       0.00000000
Si      -1.01287962       3.48035754       1.35952754       0.00000000
