10
Lattice="16.28999089631971 0.0 0.0 0.0 16.28999089631971 0.0 0.0 0.0 34.48637585096406" Properties=species:S:1:pos:R:3:initial_magmoms:R:1 pbc="T T T"
Si       1.35462753       1.35583299       1.36753386       0.00000000
Si       1.43176068      -1.30685059      -1.34412104       0.00000000
Si      -1.35988920      -1.36225451       1.36836153       0.00000000
Si      -1.32160770       1.36673100      -1.45213243       0.00000000
Si      -0.13616811      -2.52158123      -2.77184888       0.00000000
Si      -2.70039330       2.71658556      -0.00324517       0.00000000
Si      -2.71059084      -2.71128221       0.00587648       0.00000000
Si       2.72831436       2.70394452      -0.01524644       0.00000000
Si       0.00003258       2.71332756       2.72778074       0.00000000
Si      -2.71433754      -0.00364896       2.72681512       0.00000000
