10
Lattice="16.28999089631971 0.0 0.0 0.0 16.28999089631971 0.0 0.0 0.0 34.48637585096406" Properties=species:S:1:pos:R:3:initial_magmoms:R:1 pbc="T T T"
Si       1.35713619      -1.35626542      -1.35697068       0.00000000
Si       1.35702216       1.35688199       1.35690170       0.00000000
Si      -1.35663120      -1.35818764       1.35679824       0.00000000
Si      -1.35769005       1.35748309      -1.35741900       0.00000000
Si       2.71480995      -0.00062842      -2.71221703       0.00000000
Si      -0.00019548      -2.71591027       2.71235498       0.00000000
Si       0.00148239       2.71446616      -2.71470005       0.00000000
Si      -2.71500543       0.00032680      -2.71418276       0.00000000
Si       2.71362078       0.00116603       2.71566567       0.00000000
Si       0.00219915      -2.71336903      -2.71594156       0.00000000
