10
Lattice="16.28999089631971 0.0 0.0 0.0 16.28999089631971 0.0 0.0 0.0 34.48637585096406" Properties=species:S:1:pos:R:3:initial_magmoms:R:1 pbc="T T T"
Si       1.35786924       1.35466011       1.35793629       0.00000000
Si       1.35669636      -1.35803866      -1.35652235       0.00000000
Si      -1.35698958       1.35725022      -1.35735003       0.00000000
Si      -1.35755973      -1.35843125       1.35700516       0.00000000
Si      -2.71309950      -0.00084708      -2.71459659       0.00000000
Si       0.00022806      -2.71594165      -2.71211357       0.00000000
Si       2.71482624      -0.00029322      -2.71376892       0.00000000
Si      -2.71480995       2.71448415       0.00000000       0.00000000
Si       2.71630863       0.00184077       2.71307919       0.00000000
Si       2.71515204       2.71440270       0.00013795       0.00000000
