10
Lattice="16.28999089631971 0.0 0.0 0.0 16.28999089631971 0.0 0.0 0.0 34.48637585096406" Properties=species:S:1:pos:R:3:initial_magmoms:R:1 pbc="T T T"
Si       1.34014572       1.35607734       1.37128253       0.00000000
Si      -1.35648459       1.35399222      -1.35986753       0.00000000
Si       1.35804843      -1.36128200      -1.35997099       0.00000000
Si      -1.35713619      -1.35432617       1.39428495       0.00000000
Si      -2.71438641       2.71070487       0.00255199       0.00000000
Si       2.71562445       2.71077003       0.00134497       0.00000000
Si       0.00079821       2.71163340      -2.71697615       0.00000000
Si      -2.71414206      -0.00285075      -2.71687269       0.00000000
Si       2.71464705      -2.71699796      -0.00120702       0.00000000
Si       2.71560816      -0.00285075      -2.71697615       0.00000000
