10
Lattice="16.28999089631971 0.0 0.0 0.0 16.28999089631971 0.0 0.0 0.0 34.48637585096406" Properties=species:S:1:pos:R:3:initial_magmoms:R:1 pbc="T T T"
Si       0.12577509      -1.92792380      -1.30682746       0.00000000
Si       1.00939356       0.18573532       2.24678864       0.00000000
Si      -2.19727665       0.83633837      -1.13122273       0.00000000
Si       2.75235840       0.65722819      -1.00072621       0.00000000
Si       1.51806510      -0.53349980      -2.61727599       0.00000000
Si       1.35772263       2.44500357       1.52219499       0.00000000
Si      -1.75599684      -2.31552806       1.65041541       0.00000000
Si      -2.86664904       1.80294951       0.92609765       0.00000000
Si      -0.86400531       3.21447801       1.13163657       0.00000000
Si       0.08179209      -3.51460238       0.49232778       0.00000000
