10
Lattice="16.28999089631971 0.0 0.0 0.0 16.28999089631971 0.0 0.0 0.0 34.48637585096406" Properties=species:S:1:pos:R:3:initial_magmoms:R:1 pbc="T T T"
Si       0.66140658       0.73213613      -2.21116420       0.00000000
Si       1.60182828      -0.86278845       1.64989812       0.00000000
Si      -0.06253731      -2.65208598      -0.31503322       0.00000000
Si      -1.18943064       1.88315495       1.65041541       0.00000000
Si      -1.23756759       2.15127206      -2.43077356       0.00000000
Si      -3.30638130      -0.91065498      -0.88899029       0.00000000
Si      -1.79445753      -2.55201651      -1.98958911       0.00000000
Si      -3.07820727      -1.39940127       1.52429866       0.00000000
Si      -1.29239973      -3.16383633       1.64679434       0.00000000
Si      -2.30527935       0.31652122       3.00632188       0.00000000
