10
Lattice="16.28999089631971 0.0 0.0 0.0 16.28999089631971 0.0 0.0 0.0 34.48637585096406" Properties=species:S:1:pos:R:3:initial_magmoms:R:1 pbc="T T T"
Si       1.94430924       1.36982610       0.08273286       0.00000000
Si      -1.89897417       1.41913593      -0.21960936       0.00000000
Si      -0.10726965      -1.35076028      -1.95999978       0.00000000
Si      -0.66140658      -0.73213613       2.21116420       0.00000000
Si      -1.91143602       2.39394582      -2.38856221       0.00000000
Si       3.85937793       0.02650383       0.46260050       0.00000000
Si      -1.39571091       3.61755288       0.49943197       0.00000000
Si      -0.72394389      -3.38422211       1.89613098       0.00000000
Si       2.52519435       2.39937039      -1.96310356       0.00000000
Si       1.73705157      -2.80727918      -2.27606759       0.00000000
