10
Lattice="16.28999089631971 0.0 0.0 0.0 16.28999089631971 0.0 0.0 0.0 34.48637585096406" Properties=species:S:1:pos:R:3:initial_magmoms:R:1 pbc="T T T"
Si       1.35785295      -1.35896067      -1.36038483       0.00000000
Si      -1.35858600       1.35733167      -1.36135045       0.00000000
Si       1.35394335       1.37261169       1.37059280       0.00000000
Si      -1.37547873      -1.35469269       1.36993756       0.00000000
Si       2.62539414      -0.05320314       2.78201749       0.00000000
Si      -2.71562445      -2.71077003      -0.00134497       0.00000000
Si       2.71629234      -2.71178001      -0.00524193       0.00000000
Si      -2.71327869       2.71611315      -0.00020692       0.00000000
Si      -0.00001629      -2.71362078      -2.71832112       0.00000000
Si      -2.71482624       0.00086337      -2.71832112       0.00000000
