10
Lattice="16.28999089631971 0.0 0.0 0.0 16.28999089631971 0.0 0.0 0.0 34.48637585096406" Properties=species:S:1:pos:R:3:initial_magmoms:R:1 pbc="T T T"
Si       0.62042094       0.41314698       2.34504038       0.00000000
Si      -1.65916908       1.83655089       0.22688599       0.00000000
Si       1.55714481      -0.92908386      -1.73311379       0.00000000
Si      -2.17259730      -1.28267460      -0.28630605       0.00000000
Si      -3.29299092       0.02857266       1.39476776       0.00000000
Si      -0.07877844      -2.02325058      -3.05463245       0.00000000
Si       2.90753694      -0.18676485       2.46698428       0.00000000
Si      -1.56155940      -3.17707128      -1.58606380       0.00000000
Si      -2.13594480       2.59590924      -2.06818360       0.00000000
Si      -0.44826822      -1.18423413       3.81712664       0.00000000
