10
Lattice="16.28999089631971 0.0 0.0 0.0 16.28999089631971 0.0 0.0 0.0 34.48637585096406" Properties=species:S:1:pos:R:3:initial_magmoms:R:1 pbc="T T T"
Si      -1.07478162      -1.61901423       1.36386795       0.00000000
Si       1.35307998       1.31624829       1.47343123       0.00000000
Si       1.37730321      -1.31121468      -1.48736374       0.00000000
Si      -1.34306163       1.38733785      -1.47225869       0.00000000
Si       2.68245801       2.59100595      -0.08745750       0.00000000
Si       2.64875400      -2.73702951      -0.07593904       0.00000000
Si       0.65940291      -3.46485042       1.46308531       0.00000000
Si      -2.71070487      -2.71318095       0.04234929       0.00000000
Si       0.02335986      -2.68382637      -2.85795654       0.00000000
Si      -2.68991883       0.03228678      -2.85816346       0.00000000
