10
Lattice="16.28999089631971 0.0 0.0 0.0 16.28999089631971 0.0 0.0 0.0 34.48637585096406" Properties=species:S:1:pos:R:3:initial_magmoms:R:1 pbc="T T T"
Si       0.61250400       1.30943907       1.85233325       0.00000000
Si      -2.28711600       0.59991183      -0.12194389       0.00000000
Si       0.02054169      -2.36633427       0.33889780       0.00000000
Si       1.68622677       1.13049342      -1.88750938       0.00000000
Si      -1.47393549       3.19797135       0.05507477       0.00000000
Si      -0.18119367      -2.27758635       2.78546613       0.00000000
Si       1.06069077       3.38162481       0.91809681       0.00000000
Si      -3.35580516      -0.99746928       1.35014237       0.00000000
Si      -1.32061401       1.45751517       3.21051095       0.00000000
Si      -2.90753694       0.18676485      -2.46698428       0.00000000
