10
Lattice="16.28999089631971 0.0 0.0 0.0 16.28999089631971 0.0 0.0 0.0 34.48637585096406" Properties=species:S:1:pos:R:3:initial_magmoms:R:1 pbc="T T T"
Si       2.28711600      -0.59991183       0.12194389       0.00000000
Si      -1.06868916      -1.59738111       1.47208626       0.00000000
Si      -0.62042094      -0.41314698      -2.34504038       0.00000000
Si       0.81318051       2.59805952       0.17701867       0.00000000
Si      -2.27959002       1.42340391      -2.11815439       0.00000000
Si      -0.65217015       2.42455473       2.49557350       0.00000000
Si       0.96650199       0.85760334       3.33245485       0.00000000
Si       2.89962000       0.70952724       1.97427715       0.00000000
Si      -0.33135489      -3.58404435       0.49615577       0.00000000
Si      -3.25081611      -0.75882078       1.44435920       0.00000000
