10
Lattice="16.28999089631971 0.0 0.0 0.0 16.28999089631971 0.0 0.0 0.0 34.48637585096406" Properties=species:S:1:pos:R:3:initial_magmoms:R:1 pbc="T T T"
Si      -0.02054169       2.36633427      -0.33889780       0.00000000
Si      -0.20173536       0.08874792       2.44656833       0.00000000
Si       0.05238864      -1.25058330      -2.26185920       0.00000000
Si       2.53992051      -0.63293166       0.01689833       0.00000000
Si      -2.63901258      -0.61779825       0.03531407       0.00000000
Si       2.27411658      -2.02005774      -1.87130077       0.00000000
Si      -3.37634685       1.36886499       1.01124456       0.00000000
Si      -2.30765769       2.96624610      -0.46084170       0.00000000
Si      -2.03652693       1.54785951       2.92503258       0.00000000
Si       0.59196231       3.67577334       1.51343545       0.00000000
