10
Lattice="16.28999089631971 0.0 0.0 0.0 16.28999089631971 0.0 0.0 0.0 34.48637585096406" Properties=species:S:1:pos:R:3:initial_magmoms:R:1 pbc="T T T"
Si      -0.28685061       0.05030352       2.28537892       0.00000000
Si       0.54377649      -2.24044515      -0.38776503       0.00000000
Si       1.89877869       1.31256675      -0.47249810       0.00000000
Si      -1.95476742       0.09549198      -1.31803554       0.00000000
Si      -2.45558718      -1.09721295       2.34907529       0.00000000
Si       1.98104319      -1.09178838       2.77453395       0.00000000
Si       2.47357134       0.55112328      -2.60803363       0.00000000
Si       2.40816699      -2.59313994       0.89930173       0.00000000
Si      -1.23251769       1.13497317      -3.27024139       0.00000000
Si       0.53181963      -2.47270797      -2.74515154       0.00000000
