10
Lattice="16.28999089631971 0.0 0.0 0.0 16.28999089631971 0.0 0.0 0.0 34.48637585096406" Properties=species:S:1:pos:R:3:initial_magmoms:R:1 pbc="T T T"
Si      -1.58820888      -1.12231584       1.25752967       0.00000000
Si       1.00469227       1.73304423       1.29106424       0.00000000
Si       1.70781917      -1.95730866       0.00234004       0.00000000
Si      -2.10210951       0.77698413      -1.60634960       0.00000000
Si       0.67105189      -2.22136956      -2.21527588       0.00000000
Si       1.07631288      -0.15913701      -3.38939968       0.00000000
Si       2.37162037       0.31960980       2.68573200       0.00000000
Si      -0.35380155      -2.42633034       2.72384636       0.00000000
Si      -3.07100613      -2.29636872      -0.08839643       0.00000000
Si      -1.40111823      -3.29580909      -1.46833504       0.00000000
