10
Lattice="16.28999089631971 0.0 0.0 0.0 16.28999089631971 0.0 0.0 0.0 34.48637585096406" Properties=species:S:1:pos:R:3:initial_magmoms:R:1 pbc="T T T"
Si       0.44818677       2.07218574      -0.93423644       0.00000000
Si       1.90127106      -0.81252891       1.06093946       0.00000000
Si      -0.61250400      -1.30943907      -1.85233325       0.00000000
Si      -1.93311801       0.14807610       1.35817770       0.00000000
Si      -2.08643949       1.88853228      -1.79725848       0.00000000
Si      -2.89962000      -0.70952724      -1.97427715       0.00000000
Si       1.07759979      -2.71176372       2.07380488       0.00000000
Si      -2.62848924      -2.12791383       1.41159713       0.00000000
Si       1.04365143       3.39946236       0.91851065       0.00000000
Si       1.99801737       1.71724293      -2.66769509       0.00000000
