10
Lattice="16.28999089631971 0.0 0.0 0.0 16.28999089631971 0.0 0.0 0.0 34.48637585096406" Properties=species:S:1:pos:R:3:initial_magmoms:R:1 pbc="T T T"
Si       1.61867214      -1.56695139       0.83688135       0.00000000
Si      -2.07076851      -1.21868748       0.31368825       0.00000000
Si       0.52211079       2.06558829       1.20592026       0.00000000
Si       1.46535066       0.17350479      -2.31855483       0.00000000
Si       2.11577778      -0.39527685       2.76908510       0.00000000
Si       0.65217015      -2.42455473      -2.49557350       0.00000000
Si      -1.65789846      -1.61199324       2.74863466       0.00000000
Si       2.74738995       1.68544485       1.89457909       0.00000000
Si      -0.01415601      -0.17308125       3.77098385       0.00000000
Si       3.55179015      -1.71502749      -0.52129635       0.00000000
