10
Lattice="16.28999089631971 0.0 0.0 0.0 16.28999089631971 0.0 0.0 0.0 34.48637585096406" Properties=species:S:1:pos:R:3:initial_magmoms:R:1 pbc="T T T"
Si      -1.37986807       1.27667988       1.41220064       0.00000000
Si      -1.00469227      -1.73304423      -1.29106424       0.00000000
Si       1.36692811      -1.41343443       1.39466775       0.00000000
Si       0.86941522       1.99713771      -1.12067231       0.00000000
Si      -2.78059453       2.52529209      -0.04732913       0.00000000
Si      -1.00026953       3.46952565      -1.25280900       0.00000000
Si      -0.00511017       2.64065787       2.76764701       0.00000000
Si       2.71826506      -2.72373687      -0.12021612       0.00000000
Si      -2.59290115      -2.85536007      -0.03353457       0.00000000
Si       2.71015264      -0.07573221       2.77716526       0.00000000
