10
Lattice="16.28999089631971 0.0 0.0 0.0 16.28999089631971 0.0 0.0 0.0 34.48637585096406" Properties=species:S:1:pos:R:3:initial_magmoms:R:1 pbc="T T T"
Si       1.12646979      -0.91854423       1.82781343       0.00000000
Si       1.34003169       1.29410108      -1.46674087       0.00000000
Si      -1.84432122       1.45651889       0.31606781       0.00000000
Si      -0.77040297      -2.03805819      -1.02500464       0.00000000
Si       0.29914956       0.28510758      -3.40046202       0.00000000
Si      -2.87238312      -1.30838022      -1.70314511       0.00000000
Si       0.36782820      -2.02453749      -3.03397510       0.00000000
Si      -2.08178055       0.52927839      -3.02869868       0.00000000
Si      -3.71286567      -0.01793529       0.18829572       0.00000000
Si      -2.15831097       2.53742392      -1.77435952       0.00000000
