10
Lattice="16.28999089631971 0.0 0.0 0.0 16.28999089631971 0.0 0.0 0.0 34.48637585096406" Properties=species:S:1:pos:R:3:initial_magmoms:R:1 pbc="T T T"
Si       2.10198015      -0.72967797       0.67814047       0.00000000
Si       0.79060257       1.83765861      -1.32555357       0.00000000
Si      -1.00095534      -1.57727925      -1.55623307       0.00000000
Si      -0.84048255       1.29044493       1.89144083       0.00000000
Si       1.02806190       2.76489911       2.01921292       0.00000000
Si       3.24021132      -0.71615727      -1.33082999       0.00000000
Si       2.87238312       1.30838022       1.70314511       0.00000000
Si      -3.52308717      -0.66196044       0.84491668       0.00000000
Si      -3.30719580      -1.11821076      -1.45836068       0.00000000
Si      -3.14325324       1.59200541       1.52640233       0.00000000
