10
Lattice="16.28999089631971 0.0 0.0 0.0 16.28999089631971 0.0 0.0 0.0 34.48637585096406" Properties=species:S:1:pos:R:3:initial_magmoms:R:1 pbc="T T T"
Si      -1.35413883       1.35943634       1.35552225       0.00000000
Si      -1.35516510      -1.35790423      -1.35731554       0.00000000
Si       1.35995182       1.35702542      -1.35748797       0.00000000
Si       1.36293543      -1.35776550       1.36152288       0.00000000
Si      -2.71257822       2.71225568       0.00037935       0.00000000
Si      -2.71270854      -2.71499307       0.00048281       0.00000000
Si      -2.71375110      -0.00044309      -2.71407930       0.00000000
Si      -0.01697418       2.69875127       2.72901191       0.00000000
Si       0.00285075       2.71460144      -2.71504492       0.00000000
Si       0.00259011      -2.71502565      -2.71487248       0.00000000
