10
Lattice="16.28999089631971 0.0 0.0 0.0 16.28999089631971 0.0 0.0 0.0 34.48637585096406" Properties=species:S:1:pos:R:3:initial_magmoms:R:1 pbc="T T T"
Si      -1.23429330      -1.19072799      -1.61654977       0.00000000
Si       1.28655162       1.50918379      -1.54443872       0.00000000
Si       1.46007270      -1.73090439       1.11784201       0.00000000
Si      -2.75235840      -0.65722819       1.00072621       0.00000000
Si      -1.39463577       1.78777537       2.52292121       0.00000000
Si       2.36038420      -0.15218118       2.58710039       0.00000000
Si      -2.62658331      -2.58515199      -0.30610124       0.00000000
Si      -1.74296484      -0.47149287       3.24751486       0.00000000
Si       0.14498100      -2.43950310      -3.00459269       0.00000000
Si      -2.58061293       0.29822266      -2.98514236       0.00000000
