10
Lattice="16.28999089631971 0.0 0.0 0.0 16.28999089631971 0.0 0.0 0.0 34.48637585096406" Properties=species:S:1:pos:R:3:initial_magmoms:R:1 pbc="T T T"
Si       0.26580393       1.38712608       1.88819911       0.00000000
Si      -2.22172794       0.76947444      -0.39055842       0.00000000
Si      -0.34832907      -2.25926824       0.72459365       0.00000000
Si      -1.35772263      -2.44500357      -1.52219499       0.00000000
Si       1.39463577      -1.78777537      -2.52292121       0.00000000
Si       1.90232991      -2.59297378       1.52729898       0.00000000
Si      -2.27411658       2.02005774       1.87130077       0.00000000
Si      -1.91086587       1.79823681      -2.56847774       0.00000000
Si       2.00743299       2.94761034       1.39580236       0.00000000
Si       0.83525346       0.07610688       3.75398205       0.00000000
