10
Lattice="16.28999089631971 0.0 0.0 0.0 16.28999089631971 0.0 0.0 0.0 34.48637585096406" Properties=species:S:1:pos:R:3:initial_magmoms:R:1 pbc="T T T"
Si       1.48279725       1.17405288       1.34592610       0.00000000
Si       1.66988790      -0.99944037      -1.37993861       0.00000000
Si      -1.03514805       1.43376435      -1.60237586       0.00000000
Si      -1.28285379      -1.42141816       1.44203969       0.00000000
Si       0.06817365      -1.01472039      -3.38414995       0.00000000
Si       0.96889662       3.07335285      -1.51795317       0.00000000
Si       2.43397035      -2.66944556       0.25226112       0.00000000
Si      -2.59555086       2.54524734      -0.24243936       0.00000000
Si       0.01369989       2.58937695       2.77091429       0.00000000
Si       3.07100613       2.29636872       0.08839643       0.00000000
