10
Lattice="16.28999089631971 0.0 0.0 0.0 16.28999089631971 0.0 0.0 0.0 34.48637585096406" Properties=species:S:1:pos:R:3:initial_magmoms:R:1 pbc="T T T"
Si      -0.96280972      -1.77675030      -1.24123433       0.00000000
Si       0.91913230      -1.20089880       1.84195285       0.00000000
Si      -1.72376449       1.80621891       0.06297216       0.00000000
Si       1.90286911       1.11003318      -1.21216230       0.00000000
Si      -2.13744904      -0.29136294      -2.69514627       0.00000000
Si       0.61076423       2.43765189      -2.70187111       0.00000000
Si       0.60761211       0.55570077       3.64697077       0.00000000
Si      -3.56551189       1.02789900      -1.28137650       0.00000000
Si       3.01286971      -2.48733639       0.49336237       0.00000000
Si      -0.80531800       3.66086799      -1.30993123       0.00000000
