10
Lattice="16.28999089631971 0.0 0.0 0.0 16.28999089631971 0.0 0.0 0.0 34.48637585096406" Properties=species:S:1:pos:R:3:initial_magmoms:R:1 pbc="T T T"
Si      -0.58088511      -1.02954429       2.04583642       0.00000000
Si       0.42712380      -1.50135156      -1.87523222       0.00000000
Si       2.45275272       0.22532328       0.42138926       0.00000000
Si      -2.26789380       1.14209190      -0.48915503       0.00000000
Si      -1.98104319       1.09178838      -2.77453395       0.00000000
Si       1.33418358      -2.37286656       2.42570406       0.00000000
Si      -1.43726670      -1.14865677      -3.16229897       0.00000000
Si       2.92348485      -2.06982369       0.74649251       0.00000000
Si       3.27512079       0.81723672      -1.63865555       0.00000000
Si       1.89019386       2.66955633      -1.91292585       0.00000000
