10
Lattice="16.28999089631971 0.0 0.0 0.0 16.28999089631971 0.0 0.0 0.0 34.48637585096406" Properties=species:S:1:pos:R:3:initial_magmoms:R:1 pbc="T T T"
Si      -1.35437776       1.35745200      -1.35624646       0.00000000
Si       1.35800891       1.35636709       1.35717759       0.00000000
Si      -1.35652804      -1.35857874       1.35707413       0.00000000
Si       1.35846015      -1.35916518      -1.36166083       0.00000000
Si       0.00349148       2.70145031      -2.70093998       0.00000000
Si      -2.71384342      -0.01170062      -2.70837180       0.00000000
Si       2.71501804       2.71272299      -0.00034486       0.00000000
Si       0.00083368       2.71347233       2.71445865       0.00000000
Si      -2.71473937       2.71374926       0.00062076       0.00000000
Si      -2.71428325      -0.00145732       2.71463108       0.00000000
