10
Lattice="16.28999089631971 0.0 0.0 0.0 16.28999089631971 0.0 0.0 0.0 34.48637585096406" Properties=species:S:1:pos:R:3:initial_magmoms:R:1 pbc="T T T"
Si      -1.78022007      -1.52239824       0.10201076       0.00000000
Si      -0.29133036       1.15968510      -2.04476734       0.00000000
Si       2.05198518      -1.13661846      -0.49684549       0.00000000
Si      -0.17871759       1.21608108       2.10284243       0.00000000
Si       1.86634530       2.34059607       2.17505694       0.00000000
Si       1.25159328      -2.95005384      -1.89492395       0.00000000
Si       1.23294123       2.88864054      -2.05614785       0.00000000
Si      -1.01336832      -3.47079627       1.20364416       0.00000000
Si      -2.52304407       1.84376736      -2.19740412       0.00000000
Si      -3.74165010      -0.31949577       0.78277220       0.00000000
