10
Lattice="16.28999089631971 0.0 0.0 0.0 16.28999089631971 0.0 0.0 0.0 34.48637585096406" Properties=species:S:1:pos:R:3:initial_magmoms:R:1 pbc="T T T"
Si      -1.05562458       1.64711911       1.27747264       0.00000000
Si       1.67484208      -1.07124669       1.25043875       0.00000000
Si      -1.79835084      -1.87051554      -0.12656507       0.00000000
Si       1.37847609       1.82078610      -1.27507721       0.00000000
Si      -2.42211123       0.30828825       2.63163267       0.00000000
Si       0.31190463      -2.42452215       2.63018424       0.00000000
Si      -2.33834805       3.06881350      -0.08529865       0.00000000
Si       3.15539485      -2.35978569      -0.33990481       0.00000000
Si       2.81204563       0.69882471      -2.73725902       0.00000000
Si       3.01667898       0.29965455       2.62418361       0.00000000
