10
Lattice="16.28999089631971 0.0 0.0 0.0 16.28999089631971 0.0 0.0 0.0 34.48637585096406" Properties=species:S:1:pos:R:3:initial_magmoms:R:1 pbc="T T T"
Si      -1.37927430       1.24877511       1.38804292       0.00000000
Si      -1.36893015      -1.33760448      -1.36304028       0.00000000
Si       1.34684091       1.37755749      -1.36124699       0.00000000
Si       1.29821526      -1.49643198       1.44677325       0.00000000
Si       2.69771427      -2.69083107      -0.01010451       0.00000000
Si      -0.01464471      -2.69560404      -2.72280435       0.00000000
Si       2.70143001       0.02013444      -2.72273538       0.00000000
Si       2.69753182       2.73049463       0.02289897       0.00000000
Si      -2.72531700      -2.70651834       0.01162192       0.00000000
Si      -2.72880306       0.02032992      -2.72228706       0.00000000
