10
Lattice="16.28999089631971 0.0 0.0 0.0 16.28999089631971 0.0 0.0 0.0 34.48637585096406" Properties=species:S:1:pos:R:3:initial_magmoms:R:1 pbc="T T T"
Si       1.37927430      -1.24877511      -1.38804292       0.00000000
Si       1.23429330       1.19072799       1.61654977       0.00000000
Si      -1.39229001      -1.39442400       1.31044853       0.00000000
Si      -1.34631963       1.48895065      -1.36859259       0.00000000
Si      -1.51806510       0.53349980       2.61727599       0.00000000
Si       2.52084492       2.69991179       0.07211105       0.00000000
Si       0.01034415      -2.58637959      -2.75108320       0.00000000
Si       2.67748956      -2.74520709       0.05873033       0.00000000
Si      -2.82115107      -2.63863791      -0.02472675       0.00000000
Si      -2.70822879       0.12999624      -2.75260060       0.00000000
