10
Lattice="16.28999089631971 0.0 0.0 0.0 16.28999089631971 0.0 0.0 0.0 34.48637585096406" Properties=species:S:1:pos:R:3:initial_magmoms:R:1 pbc="T T T"
Si      -1.12646979       0.91854423      -1.82781343       0.00000000
Si       1.21112892       1.47219246       1.41645971       0.00000000
Si       1.58568489      -1.73367954      -0.56154197       0.00000000
Si      -1.63934415      -0.93322152       1.66586532       0.00000000
Si       1.29443598      -2.91711546       1.54095559       0.00000000
Si      -1.89687276      -1.11951396      -2.85281806       0.00000000
Si       3.63074778      -0.60916455      -0.48932746       0.00000000
Si      -2.31023151      -2.94102918       0.44580563       0.00000000
Si       3.52134414       1.02578130       1.15439759       0.00000000
Si       0.21356190       2.21264531      -3.29455430       0.00000000
