10
Lattice="16.28999089631971 0.0 0.0 0.0 16.28999089631971 0.0 0.0 0.0 34.48637585096406" Properties=species:S:1:pos:R:3:initial_magmoms:R:1 pbc="T T T"
Si       1.27387867      -0.05014062       1.93068634       0.00000000
Si       0.10940364      -1.63494585      -1.64372505       0.00000000
Si      -2.31021522       0.44641116       0.26206212       0.00000000
Si       0.87835747       2.14637759      -0.66565640       0.00000000
Si      -0.92377332       2.74182596       1.76066842       0.00000000
Si      -0.15969087       1.07182077       3.39286815       0.00000000
Si      -0.93618630       3.02958881      -1.92275447       0.00000000
Si       0.17497547      -0.43994403      -3.68259522       0.00000000
Si      -2.52548757       2.72654594      -0.24354292       0.00000000
Si       2.13295463      -2.82466971      -1.30210282       0.00000000
