10
Lattice="16.28999089631971 0.0 0.0 0.0 16.28999089631971 0.0 0.0 0.0 34.48637585096406" Properties=species:S:1:pos:R:3:initial_magmoms:R:1 pbc="T T T"
Si      -0.95806377       1.72186929      -1.28672189       0.00000000
Si      -0.15087798       0.74227014       2.26510092       0.00000000
Si      -1.12695849      -2.05268661       0.55160989       0.00000000
Si       2.11999689       0.41578596      -1.11470375       0.00000000
Si       1.12480821      -1.17630090       2.86878526       0.00000000
Si      -0.95728185       0.39021066      -3.26679275       0.00000000
Si       0.63868203       3.39734466      -0.67055347       0.00000000
Si      -3.21418153      -1.00781343       1.11580731       0.00000000
Si       2.64787434       2.38047399       0.25019880       0.00000000
Si      -2.42242726       0.36507519       2.87940707       0.00000000
