10
Lattice="16.28999089631971 0.0 0.0 0.0 16.28999089631971 0.0 0.0 0.0 34.48637585096406" Properties=species:S:1:pos:R:3:initial_magmoms:R:1 pbc="T T T"
Si      -1.84265475       1.40063049       0.28934086       0.00000000
Si       1.01343348       0.25604622       2.10194578       0.00000000
Si       1.27936773       1.11654918      -1.65113963       0.00000000
Si       0.46330389      -2.10246885      -1.02959133       0.00000000
Si       1.77381810      -1.00219338      -2.74315133       0.00000000
Si       1.18095984      -1.99295118       2.73094314       0.00000000
Si      -0.91430883       2.92117167       1.89223401       0.00000000
Si       1.95499548      -3.00691083       0.70583305       0.00000000
Si       2.81582424       1.81345167       1.56337175       0.00000000
Si       0.00368154       3.03512022      -2.25482397       0.00000000
