10
Lattice="16.28999089631971 0.0 0.0 0.0 16.28999089631971 0.0 0.0 0.0 34.48637585096406" Properties=species:S:1:pos:R:3:initial_magmoms:R:1 pbc="T T T"
Si      -1.35770308      -1.35741133       1.35697068       0.00000000
Si       1.35697329      -1.35706924      -1.35828116       0.00000000
Si      -1.35810056       1.35769740      -1.35783284       0.00000000
Si       1.35843939       1.35798736       1.35824667       0.00000000
Si       2.71272483      -0.00097460       2.71587259       0.00000000
Si       2.71463076      -2.71441720      -0.00089665       0.00000000
Si      -0.00109143       2.71405330      -2.71535529       0.00000000
Si       2.71472850       0.00038635      -2.71470005       0.00000000
Si       2.71456560       2.71537279      -0.00051730       0.00000000
Si      -2.71527579       2.71480264      -0.00055178       0.00000000
