10
Lattice="16.28999089631971 0.0 0.0 0.0 16.28999089631971 0.0 0.0 0.0 34.48637585096406" Properties=species:S:1:pos:R:3:initial_magmoms:R:1 pbc="T T T"
Si      -0.66809104       0.63918702      -2.13736331       0.00000000
Si       2.11525813      -0.85367745      -0.51436458       0.00000000
Si      -1.03676632      -2.11256865       0.21081533       0.00000000
Si       0.08004580       2.11861224       1.32713994       0.00000000
Si       0.45237493       2.66693364      -2.36780140       0.00000000
Si      -3.04496494      -1.50394167       1.24851096       0.00000000
Si       2.47412683       2.21091138       1.64441478       0.00000000
Si       0.37758428      -0.88037676      -3.61838155       0.00000000
Si       3.71200393       0.82179792       0.10180384       0.00000000
Si      -2.05971316       2.08964862       2.47039843       0.00000000
