10
Lattice="16.28999089631971 0.0 0.0 0.0 16.28999089631971 0.0 0.0 0.0 34.48637585096406" Properties=species:S:1:pos:R:3:initial_magmoms:R:1 pbc="T T T"
Si      -1.35846015       1.35916518       1.36166083       0.00000000
Si       1.35966928      -1.35822762       1.36145391       0.00000000
Si      -1.34183690      -1.37090124      -1.37374486       0.00000000
Si       1.38022727       1.34621925      -1.37368278       0.00000000
Si      -0.01961805       2.69996717      -2.66459822       0.00000000
Si       2.71361264      -2.71477737       0.00648344       0.00000000
Si      -2.70477435      -2.72417670       0.00600063       0.00000000
Si      -2.71283790       2.71661718       0.00541436       0.00000000
Si       2.71706611       2.71515271       0.00341415       0.00000000
Si       2.71462261       0.00076563       2.71839010       0.00000000
