10
Lattice="16.28999089631971 0.0 0.0 0.0 16.28999089631971 0.0 0.0 0.0 34.48637585096406" Properties=species:S:1:pos:R:3:initial_magmoms:R:1 pbc="T T T"
Si       1.29992571      -1.12568787      -1.67593534       0.00000000
Si      -0.35613198      -2.03729256       1.22385319       0.00000000
Si       0.85226022       1.58050467       1.70273127       0.00000000
Si      -1.62801934       1.32361137      -1.38249061       0.00000000
Si       3.08825820       0.54718110       0.84519257       0.00000000
Si      -2.37563586      -1.34653140       2.20454281       0.00000000
Si       1.39958793      -1.88128323       2.75735972       0.00000000
Si      -0.53612019      -2.37175884      -2.76629170       0.00000000
Si       2.42424522       0.54260361      -2.90430625       0.00000000
Si       3.27829734      -1.75591539       1.34169320       0.00000000
