10
Lattice="16.28999089631971 0.0 0.0 0.0 16.28999089631971 0.0 0.0 0.0 34.48637585096406" Properties=species:S:1:pos:R:3:initial_magmoms:R:1 pbc="T T T"
Si      -1.87969237       1.16962200      -0.83015650       0.00000000
Si       0.32948317      -1.17468819      -2.04600885       0.00000000
Si      -0.04284596      -1.72300959       1.64893250       0.00000000
Si       1.31553316       1.93241754       0.50736385       0.00000000
Si      -1.17734902       0.53382330      -2.98676322       0.00000000
Si       3.04680178       0.58121091       1.35217707       0.00000000
Si       2.35123507      -1.63071045       1.96620733       0.00000000
Si      -0.79098280      -3.20243481      -1.81557076       0.00000000
Si       0.71865127       0.30893985       3.74398100       0.00000000
Si      -0.12289176      -3.84162183       0.32179255       0.00000000
