10
Lattice="16.28999089631971 0.0 0.0 0.0 16.28999089631971 0.0 0.0 0.0 34.69518985606464" Properties=species:S:1:pos:R:3:initial_magmoms:R:1 pbc="T T T"
Si       0.84290976      -2.01736989      -1.02493118       0.00000000
Si      -0.05201397      -0.96764229       2.22632219       0.00000000
Si       1.49193594       1.76295267      -0.79982866       0.00000000
Si      -2.30946262       0.92786211      -0.20078118       0.00000000
Si      -0.10691127       0.98816769       3.59008678       0.00000000
Si       2.74864428      -1.36870209      -2.27756701       0.00000000
Si       3.48110784       0.70700229      -1.47496274       0.00000000
Si      -0.65660103      -2.76449445      -2.63791145       0.00000000
Si      -1.56805911      -2.90755323       2.21858516       0.00000000
Si       0.93465504       2.27310660      -3.17305036       0.00000000
