10
Lattice="16.28999089631971 0.0 0.0 0.0 16.28999089631971 0.0 0.0 0.0 34.69518985606464" Properties=species:S:1:pos:R:3:initial_magmoms:R:1 pbc="T T T"
Si      -2.18049795       0.61673940       0.26881848       0.00000000
Si       0.88049079      -1.04930406       1.92169825       0.00000000
Si       0.05489730      -1.95580998      -1.36376459       0.00000000
Si       0.85144572       2.11885659      -0.75899240       0.00000000
Si       1.43035974      -2.86153398       0.47476924       0.00000000
Si      -2.64608244       1.48234113      -1.86805946       0.00000000
Si      -2.10070627       2.31445062       1.94848295       0.00000000
Si       0.10691127      -0.98816769      -3.59008678       0.00000000
Si      -3.41662292      -1.25607303       1.01740232       0.00000000
Si      -1.02161106       3.23526146      -1.69159962       0.00000000
