10
Lattice="16.28999089631971 0.0 0.0 0.0 16.28999089631971 0.0 0.0 0.0 34.69518985606464" Properties=species:S:1:pos:R:3:initial_magmoms:R:1 pbc="T T T"
Si       1.35086454       1.33623729       1.36459727       0.00000000
Si      -1.35988920       1.34995184      -1.35824805       0.00000000
Si       1.35839052      -1.36225889      -1.35772762       0.00000000
Si      -1.36374993      -1.37247272       1.37757328       0.00000000
Si       2.33271171      -0.34903718       2.73498865       0.00000000
Si      -2.71217097       2.71195874       0.00111025       0.00000000
Si       0.00091224       2.71078586      -2.71535116       0.00000000
Si      -2.71415835      -0.00423511      -2.71531647       0.00000000
Si      -2.71588509      -2.71463840       0.00065921       0.00000000
Si       2.71332756       2.71762766       0.00426751       0.00000000
