10
Lattice="16.28999089631971 0.0 0.0 0.0 16.28999089631971 0.0 0.0 0.0 34.69518985606464" Properties=species:S:1:pos:R:3:initial_magmoms:R:1 pbc="T T T"
Si      -1.43431821       1.29494097      -1.39658626       0.00000000
Si       1.27953063      -1.44066968      -1.41445429       0.00000000
Si      -1.87797636      -0.87643458       1.33812483       0.00000000
Si       1.20998862       1.95299181       1.44071856       0.00000000
Si      -0.93097350       3.42389736       1.38524092       0.00000000
Si       2.64199365      -0.05927931      -2.77478405       0.00000000
Si      -0.07247421       2.64616389      -2.77547796       0.00000000
Si       2.57223987       0.24384501       2.84618680       0.00000000
Si       2.26137780      -3.12594416      -0.04406292       0.00000000
Si       3.37131324      -1.42724346       1.26196885       0.00000000
