10
Lattice="16.28999089631971 0.0 0.0 0.0 16.28999089631971 0.0 0.0 0.0 34.69518985606464" Properties=species:S:1:pos:R:3:initial_magmoms:R:1 pbc="T T T"
Si       2.30625675       0.18145105      -0.47123033       0.00000000
Si      -1.06624566       1.66320574      -1.30221529       0.00000000
Si      -0.11326437       0.90547639       2.19627614       0.00000000
Si      -0.84841578      -2.18686149      -0.44191288       0.00000000
Si       1.04146857      -0.79578165       3.21582955       0.00000000
Si       0.85261860       2.10241672      -2.73783366       0.00000000
Si       1.09400382      -3.03482115      -1.54615730       0.00000000
Si      -3.04398198       0.39688956      -1.85667943       0.00000000
Si      -1.22831487       3.34700530       0.49707826       0.00000000
Si       0.82528398       3.04827928       1.74131786       0.00000000
