10
Lattice="16.28999089631971 0.0 0.0 0.0 16.28999089631971 0.0 0.0 0.0 34.69518985606464" Properties=species:S:1:pos:R:3:initial_magmoms:R:1 pbc="T T T"
Si      -1.32442587      -1.76054501      -0.74827158       0.00000000
Si      -0.84828546       1.88222805      -1.13259041       0.00000000
Si       2.04283116      -0.44618310      -1.10580571       0.00000000
Si      -0.26424009       0.28792575       2.34043473       0.00000000
Si       0.92778066       1.99534581      -2.80500358       0.00000000
Si      -2.85974208       1.01804355      -2.01603452       0.00000000
Si      -3.09409002      -1.78160635       0.78362600       0.00000000
Si       2.98137951       1.69661979      -1.56076399       0.00000000
Si      -2.25717498      -1.11377988      -2.86509568       0.00000000
Si      -2.45558718      -0.77808208       2.82908206       0.00000000
