10
Lattice="16.28999089631971 0.0 0.0 0.0 16.28999089631971 0.0 0.0 0.0 34.69518985606464" Properties=species:S:1:pos:R:3:initial_magmoms:R:1 pbc="T T T"
Si       1.35607734      -1.35896067       1.35661738       0.00000000
Si      -1.35765747       1.35685926       1.35724189       0.00000000
Si       1.36940256       1.34825814      -1.35657574       0.00000000
Si      -1.37876931      -1.34943102      -1.35067756       0.00000000
Si      -0.17845695       2.49725700      -2.65411412       0.00000000
Si       2.54814696      -0.10757916      -2.83850875       0.00000000
Si      -2.71155032      -2.71441899      -0.00322665       0.00000000
Si      -2.71424957      -0.00037467       2.71441439       0.00000000
Si       0.00026064       2.71456560       2.71479604       0.00000000
Si       2.71515204      -0.00001629       2.71434500       0.00000000
