10
Lattice="16.28999089631971 0.0 0.0 0.0 16.28999089631971 0.0 0.0 0.0 34.69518985606464" Properties=species:S:1:pos:R:3:initial_magmoms:R:1 pbc="T T T"
Si      -1.54785951       1.14899886      -1.29753837       0.00000000
Si       1.34846991       1.36689390       1.35428586       0.00000000
Si      -1.36940256      -1.34825814       1.35657574       0.00000000
Si       1.17874440      -1.45583730      -1.48193300       0.00000000
Si      -0.83243529      -2.16564147      -2.92913059       0.00000000
Si      -2.52460791      -0.43759827      -2.77102452       0.00000000
Si       2.68881111      -2.71479366      -0.02862008       0.00000000
Si       2.69343747       2.71055826      -0.03064628       0.00000000
Si       2.70181053       0.00677664       2.71347068       0.00000000
Si      -0.01332522      -2.70721881       2.71319312       0.00000000
