10
Lattice="16.28999089631971 0.0 0.0 0.0 16.28999089631971 0.0 0.0 0.0 34.69518985606464" Properties=species:S:1:pos:R:3:initial_magmoms:R:1 pbc="T T T"
Si       1.35606105       1.35505107      -1.35745006       0.00000000
Si      -1.35677781       1.35694071       1.35668677       0.00000000
Si       1.35749457      -1.35772263       1.35776232       0.00000000
Si      -1.35907470      -1.35894438      -1.35772762       0.00000000
Si       0.00006516       2.71207323       2.71122243       0.00000000
Si      -2.71510317       0.00250866       2.71243676       0.00000000
Si       2.71319724      -0.00245979       2.71496951       0.00000000
Si      -2.71489140       2.71458189       0.00045104       0.00000000
Si      -2.71515204       0.00001629      -2.71434500       0.00000000
Si       2.71498914       2.71453302       0.00010409       0.00000000
