10
Lattice="16.28999089631971 0.0 0.0 0.0 16.28999089631971 0.0 0.0 0.0 34.69518985606464" Properties=species:S:1:pos:R:3:initial_magmoms:R:1 pbc="T T T"
Si       0.38507931      -1.54725678      -1.72941740       0.00000000
Si      -2.22948198      -0.03140712       0.76062307       0.00000000
Si       0.66038031       2.03149332      -1.08124150       0.00000000
Si       1.35285192      -0.54623628       1.98449658       0.00000000
Si       2.74822074      -0.90670140      -1.83426632       0.00000000
Si       2.94443379       1.45187883      -1.24580088       0.00000000
Si      -2.05180695      -1.89205092       2.17192010       0.00000000
Si      -0.18878481       3.59450253       0.48261036       0.00000000
Si      -1.34993601      -0.94319100      -3.38063180       0.00000000
Si      -0.30957516      -1.12809879       3.59685234       0.00000000
