10
Lattice="16.28999089631971 0.0 0.0 0.0 16.28999089631971 0.0 0.0 0.0 34.69518985606464" Properties=species:S:1:pos:R:3:initial_magmoms:R:1 pbc="T T T"
Si      -0.06281424       2.13907248      -0.89943860       0.00000000
Si       2.05359885      -0.29872602       1.24423959       0.00000000
Si      -1.77606612      -0.11311776       1.67241317       0.00000000
Si       0.16206921      -1.68379956      -1.79929355       0.00000000
Si       1.11505050      -2.44152891       1.69919787       0.00000000
Si      -0.92778066      -1.99534581       2.80500358       0.00000000
Si       1.22831487      -3.34700530      -0.49707826       0.00000000
Si       2.30032719       2.77962786      -1.00428753       0.00000000
Si      -0.44789355       3.68632926       0.82997880       0.00000000
Si       3.83246685      -0.68953941      -0.29109281       0.00000000
