10
Lattice="16.28999089631971 0.0 0.0 0.0 16.28999089631971 0.0 0.0 0.0 34.69518985606464" Properties=species:S:1:pos:R:3:initial_magmoms:R:1 pbc="T T T"
Si      -1.58882886      -1.54015434       0.75260848       0.00000000
Si      -0.64971036       1.80250479       1.35692963       0.00000000
Si       2.07358668      -0.81327825       0.99609946       0.00000000
Si      -1.19944899       0.72863541      -1.99958899       0.00000000
Si      -1.25208198      -1.61516979      -2.64509336       0.00000000
Si      -3.47258165      -0.25189227       0.09190761       0.00000000
Si      -1.19138544      -3.18844170      -0.87123140       0.00000000
Si      -0.04838130       3.60768114      -0.02033139       0.00000000
Si       1.36433637      -2.93316111       1.82590478       0.00000000
Si      -0.67955364      -2.31625881       2.86339562       0.00000000
