10
Lattice="16.28999089631971 0.0 0.0 0.0 16.28999089631971 0.0 0.0 0.0 34.69518985606464" Properties=species:S:1:pos:R:3:initial_magmoms:R:1 pbc="T T T"
Si       1.35149985      -1.35915615      -1.36175227       0.00000000
Si       1.36034532       1.34420193       1.36869131       0.00000000
Si      -1.36459701       1.35835794      -1.35696433       0.00000000
Si      -1.36132272      -1.38579030       1.36324416       0.00000000
Si      -0.36831690       2.31676380       2.67482716       0.00000000
Si       2.59740792      -0.17521524       2.76708172       0.00000000
Si       2.70045846      -2.70844056      -0.00652270       0.00000000
Si       2.70800073       0.00105885      -2.71614915       0.00000000
Si       2.71003698       2.71945260       0.00045104       0.00000000
Si      -0.00534312      -2.71428867      -2.71628793       0.00000000
