10
Lattice="16.28999089631971 0.0 0.0 0.0 16.28999089631971 0.0 0.0 0.0 34.69518985606464" Properties=species:S:1:pos:R:3:initial_magmoms:R:1 pbc="T T T"
Si      -1.76006934       1.55230668       0.02661123       0.00000000
Si      -1.00791117      -2.04046911      -0.65830690       0.00000000
Si       0.87996951       0.16778700       2.21428295       0.00000000
Si       1.41534036       0.79806339      -1.75439795       0.00000000
Si       0.75689856      -3.67404660      -0.63752447       0.00000000
Si      -2.36076309      -1.49423283      -2.64280348       0.00000000
Si       3.53012445      -0.20453724      -1.52346664       0.00000000
Si      -1.02760578       3.62801106       0.82921550       0.00000000
Si      -2.67033825      -2.62233162       0.95404886       0.00000000
Si      -0.88519860      -0.32557194       3.79537833       0.00000000
