10
Lattice="16.28999089631971 0.0 0.0 0.0 16.28999089631971 0.0 0.0 0.0 34.69518985606464" Properties=species:S:1:pos:R:3:initial_magmoms:R:1 pbc="T T T"
Si       0.73246356       2.07570438       0.80260428       0.00000000
Si       1.76006934      -1.55230668      -0.02661123       0.00000000
Si      -1.90573452      -0.64866780       1.25263583       0.00000000
Si      -0.78947856       0.54796302      -2.18680434       0.00000000
Si       1.66340448       3.07667601      -1.10767925       0.00000000
Si      -1.25670834       3.13165476       1.47773835       0.00000000
Si       2.64003885      -1.38451968       2.18767172       0.00000000
Si      -3.40524531      -1.39579236      -0.36034444       0.00000000
Si       3.17540970      -0.75424329      -1.78100918       0.00000000
Si       0.75215817      -3.59277579      -0.68491813       0.00000000
