10
Lattice="16.28999089631971 0.0 0.0 0.0 16.28999089631971 0.0 0.0 0.0 34.69518985606464" Properties=species:S:1:pos:R:3:initial_magmoms:R:1 pbc="T T T"
Si      -0.71423505       1.79294256      -1.39388003       0.00000000
Si      -1.38476403      -0.94209957       1.71664956       0.00000000
Si       2.06637021       0.56373174       1.12225124       0.00000000
Si       0.28123056      -1.73302794      -1.71907823       0.00000000
Si       0.35839629      -3.69722727      -0.41335872       0.00000000
Si      -3.12520392       0.90275922       1.84963630       0.00000000
Si      -1.43739702      -3.28590477       1.07114520       0.00000000
Si      -1.60915878       2.84267016       1.85737333       0.00000000
Si       1.19149947       2.44161036      -2.64651587       0.00000000
Si       3.06436077      -1.54842966       1.62942581       0.00000000
