10
Lattice="16.28999089631971 0.0 0.0 0.0 16.28999089631971 0.0 0.0 0.0 34.69518985606464" Properties=species:S:1:pos:R:3:initial_magmoms:R:1 pbc="T T T"
Si       1.58791662      -0.29323629       1.72893167       0.00000000
Si      -0.60764958       2.29051476       0.31416512       0.00000000
Si      -1.98650034      -1.39458690       0.42310808       0.00000000
Si       1.40555007      -0.85138056      -1.85522223       0.00000000
Si      -1.16126523       2.87576234      -2.07505107       0.00000000
Si       3.53033622      -1.14119595       0.62468724       0.00000000
Si       2.43633240       1.89362520       2.17084455       0.00000000
Si       2.57399919      -2.67872760      -0.77477872       0.00000000
Si      -1.97693811       2.13150482       2.60783071       0.00000000
Si       1.37008674       3.55683095       0.86862926       0.00000000
