10
Lattice="16.28999089631971 0.0 0.0 0.0 16.28999089631971 0.0 0.0 0.0 34.69518985606464" Properties=species:S:1:pos:R:3:initial_magmoms:R:1 pbc="T T T"
Si      -0.79781904       2.22837426       0.05488782       0.00000000
Si      -1.57991823      -1.79066685      -0.14804446       0.00000000
Si       1.71388719       0.59324922      -1.56596827       0.00000000
Si       1.01522538      -0.98489340       1.98265773       0.00000000
Si       3.07589409       0.10964799       1.79565055       0.00000000
Si       3.50498898      -0.43429140      -0.48417165       0.00000000
Si      -0.29141181      -3.69058814       0.35704840       0.00000000
Si      -0.51373773      -0.35754921       3.69386015       0.00000000
Si      -2.58937695       2.19760245       1.70634509       0.00000000
Si       1.18291464       3.51222174       0.84687536       0.00000000
