10
Lattice="16.28999089631971 0.0 0.0 0.0 16.28999089631971 0.0 0.0 0.0 34.69518985606464" Properties=species:S:1:pos:R:3:initial_magmoms:R:1 pbc="T T T"
Si       0.68618367       1.94010642      -1.09261633       0.00000000
Si      -0.93752208      -1.73687238      -1.28927741       0.00000000
Si       1.38585546      -1.31100291       1.39629829       0.00000000
Si      -1.35917244       1.39305564       1.39826204       0.00000000
Si       2.49608412      -2.83333599      -0.11742941       0.00000000
Si      -1.50693903      -0.93234186      -3.39603790       0.00000000
Si      -2.69366553      -2.74657545      -0.02830435       0.00000000
Si       0.01591533      -2.66980068       2.77497141       0.00000000
Si      -2.83387356       2.61158022      -0.09264662       0.00000000
Si       2.64702726       2.80841229      -0.02968869       0.00000000
