10
Lattice="16.28999089631971 0.0 0.0 0.0 16.28999089631971 0.0 0.0 0.0 34.69518985606464" Properties=species:S:1:pos:R:3:initial_magmoms:R:1 pbc="T T T"
Si       1.34840475      -1.35311256      -1.35672146       0.00000000
Si       1.32947577       1.35971001       1.38343677       0.00000000
Si      -1.36788759      -1.34138376       1.37004442       0.00000000
Si      -1.36617714       1.35995436      -1.35425810       0.00000000
Si      -2.22772266       0.52877340       2.64474641       0.00000000
Si      -0.52461945       2.30738076       2.73800713       0.00000000
Si       2.48819976      -0.20942424       2.74394001       0.00000000
Si       2.70866862      -2.70650205       0.00378178       0.00000000
Si       2.70808218       0.00340461      -2.71233268       0.00000000
Si      -0.00601101      -2.70979263      -2.71226329       0.00000000
