10
Lattice="16.28999089631971 0.0 0.0 0.0 16.28999089631971 0.0 0.0 0.0 34.69518985606464" Properties=species:S:1:pos:R:3:initial_magmoms:R:1 pbc="T T T"
Si       0.28714383       0.79265511       2.19974566       0.00000000
Si      -2.10499380       0.94789881      -0.80347166       0.00000000
Si       2.25950445       0.26779131      -1.06906348       0.00000000
Si      -0.57285414      -2.52126846      -0.09027693       0.00000000
Si      -0.61566426       0.44069337      -2.58902590       0.00000000
Si      -0.14845077      -1.97011260      -2.50482063       0.00000000
Si       2.05550478      -0.65072034       2.71781452       0.00000000
Si      -2.35172214      -2.13045507       1.44505547       0.00000000
Si       3.19220469      -1.27839033       0.71333350       0.00000000
Si      -1.73555289      -0.32521356       3.03607368       0.00000000
