10
Lattice="16.28999089631971 0.0 0.0 0.0 16.28999089631971 0.0 0.0 0.0 34.69518985606464" Properties=species:S:1:pos:R:3:initial_magmoms:R:1 pbc="T T T"
Si       0.52882227      -0.43109856       2.23825734       0.00000000
Si      -0.95853618      -2.10491235      -0.50922159       0.00000000
Si      -1.52813232       1.77178185       0.51681984       0.00000000
Si       1.82342115       0.48953079      -1.63549747       0.00000000
Si       0.57042693      -2.73225654      -2.22042400       0.00000000
Si      -3.15283176      -1.66229676      -1.27640205       0.00000000
Si      -2.46006693       2.52675819      -1.46975845       0.00000000
Si       0.73811619       1.76485860      -3.35620637       0.00000000
Si       0.21688506       1.32339960       3.62988218       0.00000000
Si      -0.32322618       3.64819437       1.30863390       0.00000000
