10
Lattice="16.28999089631971 0.0 0.0 0.0 16.28999089631971 0.0 0.0 0.0 34.69518985606464" Properties=species:S:1:pos:R:3:initial_magmoms:R:1 pbc="T T T"
Si       1.65848490       1.37249766       1.12905150       0.00000000
Si       0.93351474      -1.80033822      -1.34693741       0.00000000
Si      -0.56944953       1.53756423      -1.87305557       0.00000000
Si      -1.39779603      -0.75557907       2.10874012       0.00000000
Si      -0.10467954      -3.62136474      -0.26527957       0.00000000
Si       0.09166383       3.10073634       1.91874916       0.00000000
Si      -2.52835461       2.47684563      -0.91813932       0.00000000
Si      -1.59400908      -3.11415930       1.52027468       0.00000000
Si       2.93568606       0.03982905       2.70081387       0.00000000
Si       3.29238819       2.25272781      -0.39958472       0.00000000
