10
Lattice="16.28999089631971 0.0 0.0 0.0 16.28999089631971 0.0 0.0 0.0 34.69518985606464" Properties=species:S:1:pos:R:3:initial_magmoms:R:1 pbc="T T T"
Si      -1.03819428      -1.82102652       1.08165784       0.00000000
Si      -0.47705265      -0.63048816      -2.25452939       0.00000000
Si       2.32775955       0.27342765      -0.53139182       0.00000000
Si      -0.93351474       1.80033822       1.34693741       0.00000000
Si      -1.50296427       3.33790245      -0.52611815       0.00000000
Si       1.83697443      -1.99392858       2.60162027       0.00000000
Si       2.60405424       2.06892774      -2.14187405       0.00000000
Si      -2.18015586      -2.40909552      -2.34779011       0.00000000
Si      -1.32181947       1.11638628      -3.62821681       0.00000000
Si      -2.52752382      -1.31382108       2.86721209       0.00000000
