10
Lattice="16.28999089631971 0.0 0.0 0.0 16.28999089631971 0.0 0.0 0.0 34.69518985606464" Properties=species:S:1:pos:R:3:initial_magmoms:R:1 pbc="T T T"
Si       1.81457568      -1.34052039      -0.70927416       0.00000000
Si      -1.11827592      -1.61670105       1.42024839       0.00000000
Si      -1.33239168       0.87882921      -1.89432373       0.00000000
Si       1.92000456       1.23165432       1.56471924       0.00000000
Si       0.60966954      -3.21693291      -1.50108823       0.00000000
Si      -0.97363701       3.21059610      -1.57374000       0.00000000
Si      -1.49835420      -3.39754014      -0.40475431       0.00000000
Si       2.66888844      -0.31351734      -2.63326230       0.00000000
Si      -3.21833385      -0.82430658       2.17979591       0.00000000
Si       1.36441782       3.49633899      -1.37854475       0.00000000
