10
Lattice="16.28999089631971 0.0 0.0 0.0 16.28999089631971 0.0 0.0 0.0 34.69518985606464" Properties=species:S:1:pos:R:3:initial_magmoms:R:1 pbc="T T T"
Si      -1.35536403       1.35685926      -1.35797049       0.00000000
Si      -1.35736770      -1.35733167       1.35696433       0.00000000
Si       1.35814013       1.35786924       1.35713780       0.00000000
Si       1.36083938      -1.35617508      -1.36050324       0.00000000
Si       2.69362039       0.00881289      -2.70795414       0.00000000
Si       2.71334758      -2.71521720       0.00048573       0.00000000
Si      -0.00048237      -2.71419093       2.71476134       0.00000000
Si      -2.71499259      -0.00078192       2.71396335       0.00000000
Si      -2.71486227       2.71415835      -0.00010409       0.00000000
Si       2.71473223       2.71510317      -0.00003470       0.00000000
