10
Lattice="16.28999089631971 0.0 0.0 0.0 16.28999089631971 0.0 0.0 0.0 34.69518985606464" Properties=species:S:1:pos:R:3:initial_magmoms:R:1 pbc="T T T"
Si      -0.38237517      -0.61041888       2.24804139       0.00000000
Si       0.71820981       2.23493913       0.39184769       0.00000000
Si      -1.66368141       0.91364094      -1.43742252       0.00000000
Si       1.56682107      -1.72823868      -0.78969766       0.00000000
Si      -0.09166383      -3.10073634      -1.91874916       0.00000000
Si       3.01086441       2.14211871       0.04298736       0.00000000
Si       1.67052321       0.00102627       3.35998815       0.00000000
Si      -2.16979542       0.81502128       2.99752730       0.00000000
Si      -0.38402046       2.62917342      -2.80399742       0.00000000
Si      -0.65779020      -3.01589802       2.32419737       0.00000000
