10
Lattice="16.28999089631971 0.0 0.0 0.0 16.28999089631971 0.0 0.0 0.0 34.69518985606464" Properties=species:S:1:pos:R:3:initial_magmoms:R:1 pbc="T T T"
Si       1.00069470      -1.46002383      -1.55982722       0.00000000
Si      -2.33805483      -0.28574289      -0.19519525       0.00000000
Si      -0.17215272       2.12455809      -1.02510465       0.00000000
Si       1.20932073      -0.14120172       2.05052156       0.00000000
Si      -2.19348108       1.28228364      -2.01114250       0.00000000
Si       0.55558674      -2.26468467       2.94326399       0.00000000
Si      -2.69680950      -2.61750978      -0.51577898       0.00000000
Si       3.33575217      -1.07729028      -1.58862424       0.00000000
Si      -3.38783130       0.37525644       1.94775435       0.00000000
Si      -0.15967458       3.93121587       0.46536684       0.00000000
