10
Lattice="16.28999089631971 0.0 0.0 0.0 16.28999089631971 0.0 0.0 0.0 34.69518985606464" Properties=species:S:1:pos:R:3:initial_magmoms:R:1 pbc="T T T"
Si      -2.06066871      -1.09454139       0.18700718       0.00000000
Si       2.06726616      -0.89135622       0.71524174       0.00000000
Si       0.42909489      -0.54393939      -2.27982220       0.00000000
Si      -0.80767449       2.12724594       0.77193371       0.00000000
Si      -3.07589409      -0.10964799      -1.79565055       0.00000000
Si      -1.36200690       0.48360123      -3.36161882       0.00000000
Si       1.18019421       3.32092827       1.36980156       0.00000000
Si       2.55453264       0.31187205      -2.79698899       0.00000000
Si       1.72403586      -3.23510345       1.09355830       0.00000000
Si       0.30211434      -2.94835058      -2.43071166       0.00000000
