10
Lattice="16.28999089631971 0.0 0.0 0.0 16.28999089631971 0.0 0.0 0.0 34.69518985606464" Properties=species:S:1:pos:R:3:initial_magmoms:R:1 pbc="T T T"
Si       1.35992667       1.34234487      -1.39263100       0.00000000
Si      -1.36967635      -1.36115982      -1.38021012       0.00000000
Si      -0.87055878       1.78147440       1.36130123       0.00000000
Si       1.24087935      -1.43169552       1.56971535       0.00000000
Si       2.70940656       2.67874389      -0.02362744       0.00000000
Si      -2.70456584       2.70203859      -0.01956810       0.00000000
Si       2.70049593      -2.71818198      -0.00426751       0.00000000
Si      -0.00902629       2.70615996      -2.74258690       0.00000000
Si       2.70706080      -0.00418653      -2.74740953       0.00000000
Si      -2.72655734      -2.72925918      -0.02033139       0.00000000
