10
Lattice="16.28999089631971 0.0 0.0 0.0 16.28999089631971 0.0 0.0 0.0 34.69518985606464" Properties=species:S:1:pos:R:3:initial_magmoms:R:1 pbc="T T T"
Si      -1.32947577      -1.35971001      -1.38343677       0.00000000
Si       1.38302100       1.35742941      -1.37559566       0.00000000
Si       1.15872399      -1.56913425       1.36050324       0.00000000
Si      -1.85409522       0.94767075       1.35457036       0.00000000
Si       0.95071698       1.85158656       3.07770793       0.00000000
Si      -2.69886204       2.69454519      -0.01911706       0.00000000
Si      -2.69736336      -2.70109377      -0.01339235       0.00000000
Si      -2.69565291       0.00024435      -2.73769488       0.00000000
Si       2.13229584      -0.38786490       3.17714440       0.00000000
Si       2.73241944      -2.71985985      -0.01314948       0.00000000
