10
Lattice="16.28999089631971 0.0 0.0 0.0 16.28999089631971 0.0 0.0 0.0 34.69518985606464" Properties=species:S:1:pos:R:3:initial_magmoms:R:1 pbc="T T T"
Si      -1.35156501       1.35654975       1.36189105       0.00000000
Si      -1.35597960      -1.35718506      -1.35828275       0.00000000
Si       1.35471442      -1.35264015       1.36445849       0.00000000
Si       1.35868572       1.35953082      -1.35748476       0.00000000
Si       0.00164529      -2.71373481      -2.71528177       0.00000000
Si      -2.71565703      -2.71370223      -0.00267153       0.00000000
Si      -2.71396287       0.00159642      -2.71545525       0.00000000
Si       2.71536448       2.71467963       0.00208171       0.00000000
Si      -2.71544526       2.71577106       0.00176946       0.00000000
Si       2.71760273      -2.71451673       0.00121433       0.00000000
