10
Lattice="16.28999089631971 0.0 0.0 0.0 16.28999089631971 0.0 0.0 0.0 34.69518985606464" Properties=species:S:1:pos:R:3:initial_magmoms:R:1 pbc="T T T"
Si      -1.38210876      -1.88222805      -0.45346638       0.00000000
Si       0.19710900       1.69451838      -1.71474133       0.00000000
Si       2.27303201      -1.11294909      -0.11664529       0.00000000
Si      -1.47525498       1.66661361       1.31883429       0.00000000
Si      -0.54255474       0.12043197       3.10123128       0.00000000
Si      -2.48179779      -0.70086096      -2.24151869       0.00000000
Si      -0.40707081      -3.38115240       1.30124382       0.00000000
Si      -0.77646285       0.51324903      -3.53138248       0.00000000
Si       3.29328155      -0.02189376       1.74006883       0.00000000
Si       1.68629193       0.85054977       3.29382438       0.00000000
