10
Lattice="16.28999089631971 0.0 0.0 0.0 16.28999089631971 0.0 0.0 0.0 34.69518985606464" Properties=species:S:1:pos:R:3:initial_magmoms:R:1 pbc="T T T"
Si      -1.08086268      -1.84461444       1.16121396       0.00000000
Si       1.96296129       0.84246993       1.20784432       0.00000000
Si      -1.24087935       1.43169552      -1.56971535       0.00000000
Si       1.45961658      -1.28648646      -1.57398286       0.00000000
Si       1.01595843      -3.45786201       1.16072823       0.00000000
Si       2.74838364       2.63313189      -0.09034632       0.00000000
Si      -2.11143812       3.21316992      -0.20841412       0.00000000
Si       2.89393479      -2.58142743      -0.17739660       0.00000000
Si      -2.61055569       0.07053570      -2.94992547       0.00000000
Si      -2.73539141      -2.83423194      -0.27436971       0.00000000
