10
Lattice="16.28999089631971 0.0 0.0 0.0 16.28999089631971 0.0 0.0 0.0 34.69518985606464" Properties=species:S:1:pos:R:3:initial_magmoms:R:1 pbc="T T T"
Si       1.35607734       1.35410625       1.35470914       0.00000000
Si       1.35676152      -1.35770634      -1.35797049       0.00000000
Si      -1.35832536       1.35715248      -1.35776232       0.00000000
Si      -1.36050822      -1.35904212       1.35918482       0.00000000
Si       2.70640651       0.00825903       2.71444909       0.00000000
Si       2.71160156      -0.00131949      -2.71424091       0.00000000
Si      -0.00115659       2.71197549      -2.71535116       0.00000000
Si       2.71333285       2.71446786      -0.00079799       0.00000000
Si       2.71362276      -2.71528236      -0.00006939       0.00000000
Si      -2.71557558       2.71420722       0.00024287       0.00000000
