10
Lattice="16.28999089631971 0.0 0.0 0.0 16.28999089631971 0.0 0.0 0.0 34.69518985606464" Properties=species:S:1:pos:R:3:initial_magmoms:R:1 pbc="T T T"
Si       1.35032917      -1.34584722       1.35973995       0.00000000
Si      -1.35607734      -1.35410625      -1.35470914       0.00000000
Si       1.35725551       1.36036161      -1.35550713       0.00000000
Si      -1.35270531       1.35824391       1.36501362       0.00000000
Si       0.00068418      -2.71181259      -2.71267963       0.00000000
Si       2.71119750       2.71498914       0.00159598       0.00000000
Si      -2.71440270       0.00304623      -2.71247146       0.00000000
Si       2.71537425       0.00254124      -2.71236737       0.00000000
Si       2.71422418      -2.71423980       0.00478794       0.00000000
Si      -2.71658556      -2.71314837       0.00447568       0.00000000
