10
Lattice="16.28999089631971 0.0 0.0 0.0 16.28999089631971 0.0 0.0 0.0 34.69518985606464" Properties=species:S:1:pos:R:3:initial_magmoms:R:1 pbc="T T T"
Si      -1.34174214      -1.33760448      -1.39606583       0.00000000
Si       1.37274201       1.37324700      -1.39575357       0.00000000
Si      -1.49020920       1.19643534       1.59275297       0.00000000
Si       1.21673268      -1.76770935       1.44665144       0.00000000
Si       2.60737740      -0.29291049       2.59148926       0.00000000
Si      -2.71344159       2.70966231      -0.01040856       0.00000000
Si      -2.70914103      -2.72025081      -0.03969132       0.00000000
Si       2.71226871       2.73206106      -0.01543937       0.00000000
Si       2.74413195      -2.70335808      -0.03296045       0.00000000
Si       0.00886176      -2.69814528      -2.75629151       0.00000000
