10
Lattice="16.28999089631971 0.0 0.0 0.0 16.28999089631971 0.0 0.0 0.0 34.69518985606464" Properties=species:S:1:pos:R:3:initial_magmoms:R:1 pbc="T T T"
Si      -0.06397083       1.54556262       1.79061975       0.00000000
Si       2.31231663       0.23218137      -0.53160000       0.00000000
Si      -0.74648273      -2.09994390       1.17040819       0.00000000
Si      -1.75570509       0.87982290      -1.81646768       0.00000000
Si      -2.28958298       1.12241358       2.46766206       0.00000000
Si      -1.76673228      -3.19099923      -0.68630593       0.00000000
Si      -2.35347236      -1.22750037       2.72416374       0.00000000
Si       2.68786629      -0.57549312      -2.67680478       0.00000000
Si       1.43277066       1.14396525       3.60965487       0.00000000
Si      -3.26779748       2.44550367      -0.81120869       0.00000000
