10
Lattice="16.28999089631971 0.0 0.0 0.0 16.28999089631971 0.0 0.0 0.0 34.69518985606464" Properties=species:S:1:pos:R:3:initial_magmoms:R:1 pbc="T T T"
Si       0.93504600       0.83074113      -1.91614702       0.00000000
Si       1.91326050      -0.49234896       1.36272373       0.00000000
Si      -1.14697890       1.80789678       1.09036634       0.00000000
Si      -1.31217579      -2.02619907      -0.35576468       0.00000000
Si      -0.82139067       0.24115716      -3.48877677       0.00000000
Si       1.30121262       3.08421828      -1.64195078       0.00000000
Si       1.84937112      -2.84226291       1.61922542       0.00000000
Si       1.49460750       0.19202652       3.55566913       0.00000000
Si      -0.37947555      -3.57238071       1.42663231       0.00000000
Si       2.44713839      -0.73493964      -2.92140601       0.00000000
