10
Lattice="16.28999089631971 0.0 0.0 0.0 16.28999089631971 0.0 0.0 0.0 34.69518985606464" Properties=species:S:1:pos:R:3:initial_magmoms:R:1 pbc="T T T"
Si       1.71622710       1.71020565       0.24192969       0.00000000
Si      -2.03947542       1.05968079       0.81228424       0.00000000
Si      -0.91857681      -0.85136427      -2.11644246       0.00000000
Si       0.74810768      -2.18347902       0.90089580       0.00000000
Si       1.57391766      -3.13732368      -1.14143769       0.00000000
Si      -3.04026786      -1.77800463      -1.41101946       0.00000000
Si       1.48057434       3.05009073      -1.76834542       0.00000000
Si      -3.78059949       0.29600559      -0.60917848       0.00000000
Si      -1.24178670      -3.38520861       1.61311906       0.00000000
Si      -2.62036053       0.30460671       2.96158306       0.00000000
