10
Lattice="16.28999089631971 0.0 0.0 0.0 16.28999089631971 0.0 0.0 0.0 34.69518985606464" Properties=species:S:1:pos:R:3:initial_magmoms:R:1 pbc="T T T"
Si       0.17767503      -1.86064380       1.41129703       0.00000000
Si       2.22948198       0.03140712      -0.76062307       0.00000000
Si      -0.57506958       1.68215427       1.54844719       0.00000000
Si      -1.49674149       0.40159737      -1.81903513       0.00000000
Si      -0.35530119       3.45155778      -0.00485733       0.00000000
Si      -2.37024061       0.52698150       2.60221008       0.00000000
Si       1.91990682      -1.09669167       2.83622927       0.00000000
Si      -1.24711353       2.75317290      -2.08552903       0.00000000
Si      -1.84142649      -1.80960723       2.69116860       0.00000000
Si       3.58233390      -0.51482916       1.22387351       0.00000000
