10
Lattice="16.28999089631971 0.0 0.0 0.0 16.28999089631971 0.0 0.0 0.0 34.69518985606464" Properties=species:S:1:pos:R:3:initial_magmoms:R:1 pbc="T T T"
Si       0.58088511       0.75507408      -2.14929882       0.00000000
Si       0.30439494      -2.33478054       0.21070401       0.00000000
Si      -2.33505747      -0.38273355       0.02879702       0.00000000
Si       0.90054378       1.06324830       1.92929650       0.00000000
Si      -2.03128155      -2.73256605       0.33390669       0.00000000
Si       0.26854065       3.10829490      -1.86084285       0.00000000
Si      -1.16023896      -0.00860112      -3.57076155       0.00000000
Si       3.12251607       0.20983149       2.08861690       0.00000000
Si      -3.08845368      -0.26129160      -2.20612958       0.00000000
Si      -3.33575217       1.07729028       1.58862424       0.00000000
