10
Lattice="16.28999089631971 0.0 0.0 0.0 16.28999089631971 0.0 0.0 0.0 34.69518985606464" Properties=species:S:1:pos:R:3:initial_magmoms:R:1 pbc="T T T"
Si       2.09148939      -0.93657726       0.36808147       0.00000000
Si       0.19865655       2.32531605       0.11029607       0.00000000
Si      -1.63390329      -0.88023015       1.52863622       0.00000000
Si       1.63582551      -0.50933943      -1.94438892       0.00000000
Si      -1.48444254       2.70804960      -1.54664304       0.00000000
Si       1.72532277      -3.19005441       0.09388524       0.00000000
Si       0.24518079      -1.98413829      -3.08922674       0.00000000
Si      -0.18985995       2.99012724       2.36132125       0.00000000
Si      -0.35670213      -2.21289876       3.10039859       0.00000000
Si      -2.46176109       0.98000640      -2.94312521       0.00000000
