10
Lattice="16.28999089631971 0.0 0.0 0.0 16.28999089631971 0.0 0.0 0.0 34.69518985606464" Properties=species:S:1:pos:R:3:initial_magmoms:R:1 pbc="T T T"
Si      -0.58088511      -0.75507408       2.14929882       0.00000000
Si      -1.74112407      -0.76367520      -1.42146272       0.00000000
Si      -0.31234446       2.35322082       0.28845597       0.00000000
Si       2.03947542      -1.05968079      -0.81228424       0.00000000
Si       1.12089861      -1.91104506      -2.92872670       0.00000000
Si      -1.00079244      -2.83768542      -2.22330370       0.00000000
Si      -3.66933879      -1.01636568      -0.05683075       0.00000000
Si      -2.91594258      -1.13780763       2.17809585       0.00000000
Si       3.75570252       0.65052486      -0.57035454       0.00000000
Si      -0.27649017      -3.08985462       2.36000283       0.00000000
