10
Lattice="16.28999089631971 0.0 0.0 0.0 16.28999089631971 0.0 0.0 0.0 34.69518985606464" Properties=species:S:1:pos:R:3:initial_magmoms:R:1 pbc="T T T"
Si      -1.52422272      -0.90111393      -1.49623090       0.00000000
Si       2.10029318      -1.06116318      -0.43223292       0.00000000
Si       0.34323030       2.34374723      -0.37831656       0.00000000
Si      -1.02605823      -0.51269517       2.15582152       0.00000000
Si       2.56587767      -1.92676491       1.70464502       0.00000000
Si       0.45910107       0.65223272       3.59699112       0.00000000
Si      -3.68919630      -0.21686877      -0.72984842       0.00000000
Si       3.72476456       0.69175715      -0.25577308       0.00000000
Si      -1.42192152       0.28675287      -3.52426996       0.00000000
Si      -1.72403586       3.23510345      -1.09355830       0.00000000
