10
Lattice="16.28999089631971 0.0 0.0 0.0 16.28999089631971 0.0 0.0 0.0 34.69518985606464" Properties=species:S:1:pos:R:3:initial_magmoms:R:1 pbc="T T T"
Si       1.58882886       1.54015434      -0.75260848       0.00000000
Si       0.39744342      -1.64828736      -1.62383988       0.00000000
Si      -1.88375279       1.28826207      -0.66070087       0.00000000
Si       0.90927522      -0.77610447       2.11078714       0.00000000
Si      -0.90269406      -2.31313113       2.20928684       0.00000000
Si       0.33674688      -0.07501545      -3.39770184       0.00000000
Si       2.95316523      -1.39300677       1.07329630       0.00000000
Si       0.93911850       3.34265913       0.60432115       0.00000000
Si      -3.17947276       1.04804973       1.26047695       0.00000000
Si       0.38937987       2.26878975      -2.75219747       0.00000000
