10
Lattice="16.28999089631971 0.0 0.0 0.0 16.28999089631971 0.0 0.0 0.0 34.69518985606464" Properties=species:S:1:pos:R:3:initial_magmoms:R:1 pbc="T T T"
Si      -0.13683894       2.25885285      -0.76655595       0.00000000
Si       0.10459385       0.57806694       2.32523823       0.00000000
Si       2.13993976      -1.10232801       0.18225393       0.00000000
Si      -1.59064033      -1.53546282      -1.25003369       0.00000000
Si       1.90740001      -0.99924489       2.51062206       0.00000000
Si      -0.40261063      -1.02921849      -3.27318074       0.00000000
Si      -2.15893327       2.39295213      -2.07900633       0.00000000
Si       1.15888103       2.49906519      -2.68773377       0.00000000
Si       3.04263382       1.21080312      -2.02703290       0.00000000
Si      -1.72887727      -0.23108994       3.51179500       0.00000000
