10
Lattice="16.28999089631971 0.0 0.0 0.0 16.28999089631971 0.0 0.0 0.0 34.69518985606464" Properties=species:S:1:pos:R:3:initial_magmoms:R:1 pbc="T T T"
Si       1.54785951      -1.14899886       1.29753837       0.00000000
Si       1.06556148       1.32473538      -1.59176212       0.00000000
Si      -1.18956096       1.56786363       1.28567955       0.00000000
Si      -0.97674840      -1.58659713      -1.47348615       0.00000000
Si       1.22715828      -0.63478872      -2.95066938       0.00000000
Si       0.17845695      -2.49725700       2.65411412       0.00000000
Si      -2.53464581       0.21970323       2.65137320       0.00000000
Si       0.71542422      -3.31464033      -1.63159222       0.00000000
Si       2.72660391      -2.60483616      -0.18439463       0.00000000
Si       2.62453077       2.71624347      -0.11190940       0.00000000
