10
Lattice="16.28999089631971 0.0 0.0 0.0 16.28999089631971 0.0 0.0 0.0 34.69518985606464" Properties=species:S:1:pos:R:3:initial_magmoms:R:1 pbc="T T T"
Si      -1.34003153      -1.35408996       1.38884229       0.00000000
Si       1.37461945       1.36425492       1.38679527       0.00000000
Si       1.19689555      -1.57429818      -1.42031778       0.00000000
Si      -1.42658030       1.40950854      -1.41671989       0.00000000
Si      -2.68775210      -2.70990666       0.00926709       0.00000000
Si       2.70895290      -2.70213633       0.03885863       0.00000000
Si       2.71970430       2.71241532       0.02110163       0.00000000
Si      -2.69956235       2.74418082       0.02437338       0.00000000
Si      -2.69952977       0.00320913       2.74670869       0.00000000
Si       0.01533250      -2.71094922       2.74681278       0.00000000
