10
Lattice="16.28999089631971 0.0 0.0 0.0 16.28999089631971 0.0 0.0 0.0 34.69518985606464" Properties=species:S:1:pos:R:3:initial_magmoms:R:1 pbc="T T T"
Si      -1.35659210      -1.35723393       1.35717250       0.00000000
Si       1.35765747      -1.35685926      -1.35724189       0.00000000
Si       1.35791811       1.35770634       1.35755415       0.00000000
Si      -1.35544529       1.36010097      -1.35998281       0.00000000
Si      -0.02111184      -2.70629028      -2.70791945       0.00000000
Si       2.71349046       2.71415835       0.00038165       0.00000000
Si       0.00184077      -2.71446786       2.71458787       0.00000000
Si       2.71373481      -2.71581993      -0.00062451       0.00000000
Si       2.71603170       0.00006516       2.71378988       0.00000000
Si      -2.71473223      -2.71510317       0.00003470       0.00000000
