10
Lattice="16.28999089631971 0.0 0.0 0.0 16.28999089631971 0.0 0.0 0.0 34.69518985606464" Properties=species:S:1:pos:R:3:initial_magmoms:R:1 pbc="T T T"
Si      -1.54523682      -1.08271485      -1.43443873       0.00000000
Si      -0.34078680       0.14942817       2.45256965       0.00000000
Si       1.19096190       1.71501120      -1.40328243       0.00000000
Si       2.13405516      -1.52405982      -0.04041992       0.00000000
Si       2.05858359      -0.57378267       2.27080145       0.00000000
Si       0.19795608      -1.98754290      -2.71486543       0.00000000
Si      -1.07984781       2.46379734       2.53736474       0.00000000
Si      -2.52588179       0.74331270      -2.70306906       0.00000000
Si       2.31220260       3.00700368       0.25903443       0.00000000
Si       3.48065172       1.17965664       1.33947794       0.00000000
