10
Lattice="16.28999089631971 0.0 0.0 0.0 16.28999089631971 0.0 0.0 0.0 34.69518985606464" Properties=species:S:1:pos:R:3:initial_magmoms:R:1 pbc="T T T"
Si       1.36447040       1.32515638       1.36126653       0.00000000
Si       1.35107677      -1.36088610      -1.35925421       0.00000000
Si      -1.36127732       1.35423566      -1.35845622       0.00000000
Si      -1.37329934      -1.35881727       1.38447763       0.00000000
Si      -0.13138232       2.52778844       2.68187028       0.00000000
Si       2.71072487      -2.71095243       0.00045104       0.00000000
Si       2.71245161      -0.00054914      -2.71552464       0.00000000
Si       2.71443899       2.71564472       0.00090208       0.00000000
Si      -0.00273040       2.71460216      -2.71562872       0.00000000
Si      -2.71282604      -2.71763133       0.00416343       0.00000000
