10
Lattice="16.28999089631971 0.0 0.0 0.0 16.28999089631971 0.0 0.0 0.0 34.69518985606464" Properties=species:S:1:pos:R:3:initial_magmoms:R:1 pbc="T T T"
Si      -1.35394199      -1.35462753      -1.35710311       0.00000000
Si       1.35964811      -1.35006633       1.35970525       0.00000000
Si      -1.35107677       1.36088610       1.35925421       0.00000000
Si       1.36137485       1.36033696      -1.35627042       0.00000000
Si       0.01339364       2.68604248       2.72052075       0.00000000
Si      -2.71049703       0.00268785      -2.71406744       0.00000000
Si      -2.71119750      -2.71498914      -0.00159598       0.00000000
Si       0.00417676      -2.71244790      -2.71396335       0.00000000
Si      -2.71235409       2.71512176       0.00079799       0.00000000
Si       2.71564400       2.71452392       0.00079799       0.00000000
