10
Lattice="16.28999089631971 0.0 0.0 0.0 16.28999089631971 0.0 0.0 0.0 34.69518985606464" Properties=species:S:1:pos:R:3:initial_magmoms:R:1 pbc="T T T"
Si      -1.38583917       0.17549217       1.98262304       0.00000000
Si       0.73906101      -2.31436917      -0.08479509       0.00000000
Si       1.98650034       1.39458690      -0.42310808       0.00000000
Si      -1.61780551       0.90738558      -2.12438766       0.00000000
Si       1.07984781      -2.46379734      -2.53736474       0.00000000
Si      -2.69122236      -1.88553492       1.74645275       0.00000000
Si      -0.72997119      -3.24667845       1.74988757       0.00000000
Si      -2.11817893       2.44901255       2.01839380       0.00000000
Si       1.37885076       3.68510166      -0.10894296       0.00000000
Si       3.57441696       1.10135061       1.30582359       0.00000000
