10
Lattice="16.290000149 0.0 0.0 0.0 16.290000149 0.0 0.0 0.0 29.1751946751" Properties=species:S:1:pos:R:3:initial_magmoms:R:1 pbc="T T T"
Si       1.22354191      -1.53290530       1.24131701       0.00000000
Si      -1.38714238      -1.35174421      -1.29348226       0.00000000
Si      -1.05702553       1.46603485       1.47877392       0.00000000
Si       1.37647243       1.31818681      -1.35667573       0.00000000
Si       0.75932578       2.22005009       2.86086124       0.00000000
Si      -2.37175886       0.10928961       2.86351618       0.00000000
Si      -0.01928736       2.60125238      -2.71580217       0.00000000
Si      -0.02699253      -2.69982317      -2.62815989       0.00000000
Si      -2.50535315       2.81838180       0.19871225       0.00000000
Si      -2.74175363       0.00612504      -2.59667985       0.00000000
