10
Lattice="16.290000149 0.0 0.0 0.0 16.290000149 0.0 0.0 0.0 29.1751946751" Properties=species:S:1:pos:R:3:initial_magmoms:R:1 pbc="T T T"
Si      -1.35382933      -1.31670442       1.40006508       0.00000000
Si       1.34690608       1.36624231       1.36604680       0.00000000
Si      -1.38417760       1.33597549      -1.37310136       0.00000000
Si       1.42905655      -1.37968156      -1.28845537       0.00000000
Si      -2.67745700      -2.65587275       0.00515817       0.00000000
Si      -2.56202606      -0.14419908      -2.82972547       0.00000000
Si       2.68762196      -0.01244556      -2.71527118       0.00000000
Si       2.71653671       2.71521722       0.01673197       0.00000000
Si      -0.00164529      -2.68400558       2.75802451       0.00000000
Si       2.80505658      -2.64458378       0.12737015       0.00000000
