10
Lattice="16.290000149 0.0 0.0 0.0 16.290000149 0.0 0.0 0.0 29.1751946751" Properties=species:S:1:pos:R:3:initial_magmoms:R:1 pbc="T T T"
Si       1.34766194      -1.33441165       1.37677744       0.00000000
Si      -1.27256194       1.36073629       1.42199899       0.00000000
Si       1.34191157       1.36906048      -1.36233572       0.00000000
Si      -1.37912119      -1.36304947      -1.33260619       0.00000000
Si       2.65794810       0.13580973       2.65663488       0.00000000
Si       0.01677056      -2.69973847      -2.68160884       0.00000000
Si      -2.66402753       2.71676477       0.07255871       0.00000000
Si      -2.68349408       0.01793529      -2.70719549       0.00000000
Si      -0.06163484      -2.63119178       2.76385372       0.00000000
Si      -2.56855184      -0.00188964       2.86339948       0.00000000
