10
Lattice="16.290000149 0.0 0.0 0.0 16.290000149 0.0 0.0 0.0 29.1751946751" Properties=species:S:1:pos:R:3:initial_magmoms:R:1 pbc="T T T"
Si       1.34742736       1.35607735       1.36291922       0.00000000
Si       1.37889964      -1.34957764      -1.34847750       0.00000000
Si      -1.35900955      -1.34449516       1.37359734       0.00000000
Si      -1.35218404       1.36730116      -1.35795944       0.00000000
Si      -0.05087367      -2.75102265      -2.59136997       0.00000000
Si       2.67949325      -2.69889464       0.06990377       0.00000000
Si      -0.02161683       2.71992503       2.69972664       0.00000000
Si       2.69402393      -0.00239463       2.73205276       0.00000000
Si      -2.67581171       0.02813283      -2.75286634       0.00000000
Si       2.69969285       2.73043209       0.01619223       0.00000000
