10
Lattice="16.290000149 0.0 0.0 0.0 16.290000149 0.0 0.0 0.0 29.1751946751" Properties=species:S:1:pos:R:3:initial_magmoms:R:1 pbc="T T T"
Si      -0.93954694       0.81267553       1.99214064       0.00000000
Si       1.35488330       1.38953701      -1.33491103       0.00000000
Si      -1.87174219      -0.88774799      -1.12607499       0.00000000
Si       1.84117238      -1.16677126       0.93707808       0.00000000
H        2.64132090       1.44819730      -0.52486175       0.00000000
H       -2.90120504       0.24207918      -1.10714029       0.00000000
Si       0.51999961      -2.59476896       2.27718229       0.00000000
Si       1.96601894      -0.11657287      -3.09621753       0.00000000
Si       0.39121250       2.78751225       2.48295494       0.00000000
Si      -0.65008601      -1.00477047       3.56617157       0.00000000
