10
Lattice="16.290000149 0.0 0.0 0.0 16.290000149 0.0 0.0 0.0 29.1751946751" Properties=species:S:1:pos:R:3:initial_magmoms:R:1 pbc="T T T"
Si      -1.37028060       1.34179102      -1.35746346       0.00000000
Si      -1.33128560      -1.39730734       1.34246741       0.00000000
Si       1.29818269      -1.35788554      -1.41806034       0.00000000
Si       1.35674524       1.38173410       1.35060729       0.00000000
Si       2.77521330       0.00879660       2.60446963       0.00000000
Si      -2.73251721      -0.07903908       2.65955240       0.00000000
Si       2.60882723      -2.78480811      -0.12119376       0.00000000
Si      -0.01018125       2.69208542      -2.71107579       0.00000000
Si      -2.70873537       2.70409115       0.01595883       0.00000000
Si       0.03849327      -2.63521703       2.78783573       0.00000000
