10
Lattice="16.290000149 0.0 0.0 0.0 16.290000149 0.0 0.0 0.0 29.1751946751" Properties=species:S:1:pos:R:3:initial_magmoms:R:1 pbc="T T T"
Si      -1.34012944       1.35786925       1.34349642       0.00000000
Si       1.40289481      -1.42350166       1.21888128       0.00000000
Si       1.38750076       1.22238532      -1.44253833       0.00000000
Si      -1.50397426      -1.28562310      -1.28321259       0.00000000
H        0.48466008       2.03365991      -2.35642212       0.00000000
Si       2.70519887       0.02780703       2.58962529       0.00000000
Si      -2.55171449       2.77858533      -0.10287174       0.00000000
Si      -2.66260052      -0.04654053       2.68487355       0.00000000
Si       2.43571340      -0.26137305      -2.90754155       0.00000000
Si       0.07239276      -2.80515432       2.59328678       0.00000000
