10
Lattice="16.290000149 0.0 0.0 0.0 16.290000149 0.0 0.0 0.0 29.1751946751" Properties=species:S:1:pos:R:3:initial_magmoms:R:1 pbc="T T T"
Si       0.65684539      -0.42072183       2.13064404       0.00000000
Si      -1.07085574      -1.75935260      -1.06606161       0.00000000
Si      -1.69868864       1.60026445      -0.01528780       0.00000000
Si       1.78756688       0.58986091      -1.43842462       0.00000000
Si      -0.30841857       3.03715650      -1.19268196       0.00000000
H        3.05698143       1.16093944      -0.51745125       0.00000000
H       -0.55910539      -3.03819906       1.33091403       0.00000000
Si      -1.99477568      -0.71231284      -2.89978095       0.00000000
Si      -1.25175619      -1.21130812       3.25275996       0.00000000
Si       0.75991222       1.92248066      -3.05977772       0.00000000
