10
Lattice="16.290000149 0.0 0.0 0.0 16.290000149 0.0 0.0 0.0 29.1751946751" Properties=species:S:1:pos:R:3:initial_magmoms:R:1 pbc="T T T"
Si       1.36370107      -1.33999912       1.36265664       0.00000000
Si       1.35529543       1.37209042      -1.34450967       0.00000000
Si      -1.35470899       1.35337321       1.36501983       0.00000000
Si      -1.33786513      -1.40405140      -1.33634062       0.00000000
Si       2.70707222      -2.67133196      -0.02439046       0.00000000
Si      -2.76793167      -0.08480574      -2.62247072       0.00000000
Si       0.01163106      -2.73113255       2.68983625       0.00000000
Si      -2.72316674       2.70102863       0.02228985       0.00000000
Si       0.01086543       2.71523351      -2.71335146       0.00000000
Si       2.71363709       2.72005535       0.02191057       0.00000000
