10
Lattice="16.290000149 0.0 0.0 0.0 16.290000149 0.0 0.0 0.0 29.1751946751" Properties=species:S:1:pos:R:3:initial_magmoms:R:1 pbc="T T T"
H        1.26941455       0.57107854       0.92097337       0.00000000
Si       1.22603428      -1.85614778      -0.66297712       0.00000000
Si      -1.02765466       1.33261975      -1.62135309       0.00000000
Si      -1.78756688      -0.58986091       1.43842462       0.00000000
H        0.91965196       1.19329138      -2.72032433       0.00000000
Si      -2.09598545       2.44729559       0.24574266       0.00000000
Si      -1.79129729      -0.70615522      -2.63224441       0.00000000
Si       2.46586619       1.07867494       1.98402994       0.00000000
Si      -0.30802761      -2.57517209      -2.27977889       0.00000000
Si      -2.85842262      -2.34921350       0.37236301       0.00000000
