10
Lattice="16.290000149 0.0 0.0 0.0 16.290000149 0.0 0.0 0.0 29.1751946751" Properties=species:S:1:pos:R:3:initial_magmoms:R:1 pbc="T T T"
Si       1.41253523       1.38777769      -1.25780391       0.00000000
Si      -1.28200232       1.34473951       1.45309975       0.00000000
Si       1.36661372      -1.35309628       1.36566169       0.00000000
Si      -1.39273311      -1.28319589      -1.43051523       0.00000000
Si      -2.69557474      -2.64280817      -0.00201309       0.00000000
Si      -2.59863295       2.77613368       0.17280468       0.00000000
Si       0.13344768       2.75792146      -2.64616682       0.00000000
Si       2.74341196       0.07727976      -2.67800279       0.00000000
Si       0.01915541      -2.69923673       2.73459100       0.00000000
Si       2.71402480       2.71639825       0.16434387       0.00000000
