10
Lattice="16.290000149 0.0 0.0 0.0 16.290000149 0.0 0.0 0.0 29.1751946751" Properties=species:S:1:pos:R:3:initial_magmoms:R:1 pbc="T T T"
Si       1.35874891       1.36544410       1.33129331       0.00000000
Si       1.36461331      -1.34669431      -1.35159924       0.00000000
Si      -1.32986674       1.36648666      -1.37537703       0.00000000
Si      -1.35578413      -1.37710774       1.35632563       0.00000000
Si       2.69506649      -0.00920385       2.68531409       0.00000000
Si      -0.00356751      -2.69583212      -2.68998212       0.00000000
Si      -2.70744689       0.00280188      -2.68146297       0.00000000
Si      -2.71490771       2.68169240      -0.01735924       0.00000000
Si       0.01187541       2.71353935       2.69788860       0.00000000
Si       2.69001659      -2.72881938       0.00977369       0.00000000
