10
Lattice="16.290000149 0.0 0.0 0.0 16.290000149 0.0 0.0 0.0 29.1751946751" Properties=species:S:1:pos:R:3:initial_magmoms:R:1 pbc="T T T"
Si       1.34687350      -1.34809525      -1.36659529       0.00000000
Si      -1.35435061      -1.37445247       1.34261328       0.00000000
Si      -1.35615880       1.32954094      -1.38774731       0.00000000
Si       1.36555813       1.33980364       1.37231363       0.00000000
Si      -2.72666909      -0.01474245       2.66413290       0.00000000
Si      -0.01684386       2.68332140       2.70923775       0.00000000
Si       2.68319108      -2.72274320      -0.01257451       0.00000000
Si      -0.01187541      -2.71353935      -2.69788860       0.00000000
Si      -2.73452088       2.67683798      -0.06590676       0.00000000
Si       2.70993926       2.71145423       0.00954029       0.00000000
