10
Lattice="16.290000149 0.0 0.0 0.0 16.290000149 0.0 0.0 0.0 29.1751946751" Properties=species:S:1:pos:R:3:initial_magmoms:R:1 pbc="T T T"
Si       1.24224283      -1.38929266       1.37047559       0.00000000
Si      -1.36014985       1.34807896       1.33467763       0.00000000
Si      -1.29212281      -1.43702236      -1.31390489       0.00000000
Si       1.45745002       1.29699352      -1.30340182       0.00000000
Si       2.68068242      -0.05962140       2.58185885       0.00000000
Si      -2.64727163      -0.07068231      -2.65050809       0.00000000
Si       0.09467748       2.62347194      -2.68300925       0.00000000
Si       0.02699253       2.69982317       2.62815989       0.00000000
Si      -2.60047046      -2.78299340       0.10914440       0.00000000
Si       0.13308930      -2.80014840      -2.61188013       0.00000000
