10
Lattice="16.290000149 0.0 0.0 0.0 16.290000149 0.0 0.0 0.0 29.1751946751" Properties=species:S:1:pos:R:3:initial_magmoms:R:1 pbc="T T T"
Si      -1.27908755       1.37014377      -1.38836291       0.00000000
Si       1.30148956       1.32862056       1.42214778       0.00000000
Si      -1.41253523      -1.38777769       1.25780391       0.00000000
Si       1.33087672      -1.31049793      -1.42019888       0.00000000
Si       2.64543086       2.65970090       0.07425379       0.00000000
Si      -0.04592151      -2.74087398       2.62346560       0.00000000
Si      -0.09620874      -2.66812283      -2.69780458       0.00000000
Si       2.65896785      -2.71103069      -0.05493689       0.00000000
Si      -2.71214762       2.67999824      -0.04016549       0.00000000
Si      -2.69453756      -0.04303818       2.71090366       0.00000000
