10
Lattice="16.290000149 0.0 0.0 0.0 16.290000149 0.0 0.0 0.0 29.1751946751" Properties=species:S:1:pos:R:3:initial_magmoms:R:1 pbc="T T T"
Si      -0.55843750       1.03980700       2.00331474       0.00000000
Si      -1.62282610      -1.68603131      -0.05721256       0.00000000
Si       2.19564767      -0.72451405      -0.45606664       0.00000000
Si       0.04292415       2.14858586      -0.97331367       0.00000000
Si       0.68673754       2.82578560       1.17167582       0.00000000
Si       1.90811288       0.16120584      -2.69739262       0.00000000
Si       1.92995777      -2.75314035       0.74358819       0.00000000
Si      -3.44026884      -0.22097385       0.10450555       0.00000000
Si      -0.22094127      -0.80785369      -3.37469477       0.00000000
Si      -1.27757584      -2.56999187      -2.19237000       0.00000000
