10
Lattice="16.290000149 0.0 0.0 0.0 16.290000149 0.0 0.0 0.0 29.1751946751" Properties=species:S:1:pos:R:3:initial_magmoms:R:1 pbc="T T T"
Si      -0.84517408      -0.93131560      -0.81261670       0.00000000
H        1.43858620       0.91145809       0.54688902       0.00000000
H        0.81272440      -0.74290546       1.65204540       0.00000000
Si       2.08533179       1.73762174      -0.53005494       0.00000000
Si      -1.09447624       2.75178828      -0.06651944       0.00000000
Si      -0.80694145       1.86606839       2.17480654       0.00000000
Si       0.58365442      -2.37535895      -1.93449046       0.00000000
Si      -2.14040828       0.36180090      -2.24059660       0.00000000
Si      -2.67815747      -1.75583396       0.34934378       0.00000000
Si       1.99668161      -1.25858170       2.45097893       0.00000000
