10
Lattice="16.290000149 0.0 0.0 0.0 16.290000149 0.0 0.0 0.0 29.1751946751" Properties=species:S:1:pos:R:3:initial_magmoms:R:1 pbc="T T T"
Si       0.15169248      -0.79545700      -1.27606466       0.00000000
H       -1.43345485       2.03958947      -0.43027577       0.00000000
Si       0.93499714      -0.18063981       2.54439790       0.00000000
H       -1.28396152      -2.67548591       0.43100515       0.00000000
Si      -2.05644962      -0.70459138      -2.08815621       0.00000000
Si       1.02051964      -2.87339313      -0.48314122       0.00000000
Si      -0.78506398       1.44888148       2.63650399       0.00000000
Si       2.80111440       0.71948044       1.26672860       0.00000000
Si       0.87974146      -2.47305008       1.87771553       0.00000000
Si       1.24413247       0.35930853      -2.98050871       0.00000000
