10
Lattice="16.290000149 0.0 0.0 0.0 16.290000149 0.0 0.0 0.0 29.1751946751" Properties=species:S:1:pos:R:3:initial_magmoms:R:1 pbc="T T T"
Si       0.96982516      -1.44570493      -1.52139888       0.00000000
Si      -1.68645485       0.93804337      -1.30687367       0.00000000
Si      -1.26796474      -1.48447513       1.32032344       0.00000000
Si       1.50397426       1.28562310       1.28321259       0.00000000
H       -1.15626421       1.19977480      -2.69275377       0.00000000
Si      -0.92838340      -2.94754521      -1.83908757       0.00000000
Si      -2.64546344      -2.50440833      -0.31561726       0.00000000
Si      -2.57180006      -0.05745483       2.62425158       0.00000000
Si       0.16384482       2.64349235       2.62670900       0.00000000
Si       2.53460999      -2.72997596      -0.39509049       0.00000000
