10
Lattice="16.290000149 0.0 0.0 0.0 16.290000149 0.0 0.0 0.0 29.1751946751" Properties=species:S:1:pos:R:3:initial_magmoms:R:1 pbc="T T T"
Si      -1.43405758       1.32159142       1.28283331       0.00000000
Si      -1.37709145      -1.34004799      -1.33286877       0.00000000
Si       1.34964280       1.35744571      -1.35294130       0.00000000
Si       1.35749458      -1.33413472       1.37709836       0.00000000
Si      -0.00622278       2.71028135       2.46151117       0.00000000
Si       0.00083079      -2.70643691      -2.64508150       0.00000000
Si       2.72800487       0.01014867      -2.67478185       0.00000000
Si      -2.72921033       0.03593574      -2.67399412       0.00000000
Si      -0.01273878       2.75173941      -2.65742261       0.00000000
Si       0.01358586      -2.66680334       2.74754478       0.00000000
