10
Lattice="16.290000149 0.0 0.0 0.0 16.290000149 0.0 0.0 0.0 29.1751946751" Properties=species:S:1:pos:R:3:initial_magmoms:R:1 pbc="T T T"
Si      -1.34734435      -1.41187060       1.30620264       0.00000000
Si       1.33845477      -1.36230013      -1.37342229       0.00000000
Si      -1.43825884       1.34902378      -1.28820155       0.00000000
Si       1.37948765       1.36047565       1.35626727       0.00000000
Si      -2.58426035      -0.04675230       2.72464226       0.00000000
Si      -0.06005967       2.67662621      -2.67746597       0.00000000
Si       0.00000876       2.75336726       2.65637230       0.00000000
Si       2.70873537      -2.70409115      -0.01595883       0.00000000
Si       2.69855412      -0.01200573      -2.72703462       0.00000000
Si       2.71591926       2.71134020      -0.01406244       0.00000000
