10
Lattice="16.290000149 0.0 0.0 0.0 16.290000149 0.0 0.0 0.0 29.1751946751" Properties=species:S:1:pos:R:3:initial_magmoms:R:1 pbc="T T T"
Si       1.46768734      -1.29267455       1.27457673       0.00000000
Si      -1.40020696      -1.41494616      -1.25850120       0.00000000
Si      -1.23434218       1.42976028       1.41310055       0.00000000
Si       1.38202732       1.33970916      -1.38033681       0.00000000
Si       0.15910443      -2.63149966       2.64315594       0.00000000
Si      -2.58693347       2.74268542      -0.01094070       0.00000000
Si      -2.66204666      -0.02258934      -2.68855254       0.00000000
Si       0.02941974      -2.69701804      -2.66999712       0.00000000
Si       2.69951366       0.07156686       2.71612310       0.00000000
Si       2.76114851       2.70275863      -0.04773062       0.00000000
