10
Lattice="16.290000149 0.0 0.0 0.0 16.290000149 0.0 0.0 0.0 29.1751946751" Properties=species:S:1:pos:R:3:initial_magmoms:R:1 pbc="T T T"
Si       0.97883353      -1.85961755       0.89532837       0.00000000
Si      -1.48667428      -1.01279818      -1.46993383       0.00000000
Si      -1.60969636       0.79048855       1.52154475       0.00000000
Si       1.65840347       1.52334307      -0.73594429       0.00000000
H        0.90402985       2.08257878       1.75818476       0.00000000
H        0.25334208       2.50608620       1.71900247       0.00000000
H       -0.89394634       0.87480559       2.84764488       0.00000000
Si      -1.95089042       2.74015722       0.14961040       0.00000000
Si       0.17451477       3.32579901      -0.85115713       0.00000000
Si      -0.05652630      -2.23933745      -2.75755188       0.00000000
