10
Lattice="16.290000149 0.0 0.0 0.0 16.290000149 0.0 0.0 0.0 29.1751946751" Properties=species:S:1:pos:R:3:initial_magmoms:R:1 pbc="T T T"
Si       1.33099075      -1.41879385      -1.28607176       0.00000000
Si      -1.34830702      -1.37400938       1.33709917       0.00000000
Si       1.38588805       1.35047359       1.32423291       0.00000000
Si      -1.30059361       1.34931700      -1.41838126       0.00000000
Si       2.66406662      -0.07941375      -2.61623598       0.00000000
Si       0.01453068       2.69650001       2.66214899       0.00000000
Si      -2.67949325       2.69889464      -0.06990377       0.00000000
Si      -2.70835913      -0.01594791       2.67580298       0.00000000
Si      -2.73036692      -0.05212800      -2.66127373       0.00000000
Si       0.03455109      -2.73328283       2.65888137       0.00000000
