10
Lattice="16.290000149 0.0 0.0 0.0 16.290000149 0.0 0.0 0.0 29.1751946751" Properties=species:S:1:pos:R:3:initial_magmoms:R:1 pbc="T T T"
Si       1.36005211      -1.35806147      -1.33870381       0.00000000
Si       1.37318185       1.34765542       1.34287586       0.00000000
Si      -1.34431597      -1.35528566       1.36566169       0.00000000
Si      -1.33014367       1.37034739      -1.37210941       0.00000000
Si       0.00192222       2.70479162       2.67516113       0.00000000
Si       2.70835913       0.01594791      -2.67580298       0.00000000
Si       0.04543281      -2.70368390       2.69870551       0.00000000
Si       0.00402363      -2.72938953      -2.67679494       0.00000000
Si      -2.68939757       2.72520299      -0.01779687       0.00000000
Si      -2.70091460      -2.71823087       0.01543368       0.00000000
