10
Lattice="16.290000149 0.0 0.0 0.0 16.290000149 0.0 0.0 0.0 29.1751946751" Properties=species:S:1:pos:R:3:initial_magmoms:R:1 pbc="T T T"
Si      -1.32322042      -1.33765271      -1.33819616       0.00000000
Si       1.31663063      -1.43139417       1.28029507       0.00000000
Si      -1.44225145       1.33279080       1.28227898       0.00000000
Si       1.29902057       1.29164226      -1.47077408       0.00000000
Si       2.63165278      -0.04836990       2.64233903       0.00000000
Si      -0.07407063       2.68192861       2.62066186       0.00000000
Si      -2.74110203       0.00713502      -2.58965738       0.00000000
Si       2.66113117       2.68735318      -0.15261544       0.00000000
Si      -0.15148071       2.67433747      -2.69925108       0.00000000
Si       2.59863295      -2.77613368      -0.17280468       0.00000000
