10
Lattice="16.290000149 0.0 0.0 0.0 16.290000149 0.0 0.0 0.0 29.1751946751" Properties=species:S:1:pos:R:3:initial_magmoms:R:1 pbc="T T T"
Si       1.14061278       0.29313855       1.14620587       0.00000000
Si      -0.07929158      -1.68824675      -0.24924369       0.00000000
Si      -0.51664224      -0.94266973      -2.46261983       0.00000000
Si      -0.38628559       1.48522447       2.47154744       0.00000000
Si       2.31605846       1.92239921      -0.10333854       0.00000000
Si      -1.69895416      -2.33867387       1.30599841       0.00000000
Si       0.63228821       1.17204922      -2.97126018       0.00000000
Si      -1.76851246       2.60869691       0.96003896       0.00000000
Si      -2.53474520       0.44551521      -2.31543098       0.00000000
Si       0.86239912       3.05667192      -1.55850972       0.00000000
