10
Lattice="16.290000149 0.0 0.0 0.0 16.290000149 0.0 0.0 0.0 29.1751946751" Properties=species:S:1:pos:R:3:initial_magmoms:R:1 pbc="T T T"
Si       1.34745831       1.34614045      -1.36892931       0.00000000
Si       1.35143307      -1.35843940       1.35970995       0.00000000
Si      -1.32967731       1.35008263       1.39133586       0.00000000
Si      -1.36427285      -1.33024141      -1.37884888       0.00000000
Si       2.67732506       2.69345378       0.04542578       0.00000000
Si      -2.70531453      -2.68312592       0.00638937       0.00000000
Si      -2.69874966       2.70826139       0.05269040       0.00000000
Si       2.69148107       0.00475668       2.72484648       0.00000000
Si      -2.67760524      -0.00373041       2.74853674       0.00000000
Si      -0.00917453      -2.71925714      -2.70847920       0.00000000
