10
Lattice="16.290000149 0.0 0.0 0.0 16.290000149 0.0 0.0 0.0 29.1751946751" Properties=species:S:1:pos:R:3:initial_magmoms:R:1 pbc="T T T"
Si       0.43735067      -0.74557702       2.21337614       0.00000000
Si      -1.28218591      -1.56802654      -1.36618684       0.00000000
Si      -2.01810296       1.38818494       0.14718886       0.00000000
Si       1.14893045       2.11471895      -0.50864034       0.00000000
H        0.51664224       0.94266973       2.46261983       0.00000000
Si       2.15314706      -1.31968549      -0.96978347       0.00000000
H       -1.06979689       1.16864461      -2.32660507       0.00000000
H       -1.55970235       2.68195304      -0.48503761       0.00000000
H       -2.72852615      -1.28138770      -0.93573602       0.00000000
Si      -0.02881701       2.27476820      -2.52747629       0.00000000
