10
Lattice="16.290000149 0.0 0.0 0.0 16.290000149 0.0 0.0 0.0 29.1751946751" Properties=species:S:1:pos:R:3:initial_magmoms:R:1 pbc="T T T"
Si      -1.36304947      -1.36146934       1.33041805       0.00000000
Si       1.33608952      -1.44168130      -1.28846412       0.00000000
Si      -1.38505726       1.35658234      -1.33917061       0.00000000
Si       1.38085444       1.34415307       1.35629645       0.00000000
Si       2.69131979      -0.10026495      -2.60327636       0.00000000
Si       0.01904301      -2.69964398       2.68181307       0.00000000
Si      -2.71363709       0.00361638       2.68531409       0.00000000
Si      -0.03554478       2.75313057      -2.64847457       0.00000000
Si      -2.69646743      -2.71360451      -0.06374780       0.00000000
Si      -2.70875009       2.70842429       0.04536743       0.00000000
