10
Lattice="16.290000149 0.0 0.0 0.0 16.290000149 0.0 0.0 0.0 29.1751946751" Properties=species:S:1:pos:R:3:initial_magmoms:R:1 pbc="T T T"
Si       1.30437289      -1.38098476       1.37458930       0.00000000
Si      -1.37306782      -1.38354229      -1.30996624       0.00000000
Si      -1.32410008       1.37132479       1.37257621       0.00000000
Si       1.35360127       1.34827444      -1.37388909       0.00000000
Si      -2.68394042       2.69656517      -0.01870130       0.00000000
Si       2.68349408      -0.01793529       2.70719549       0.00000000
Si      -0.00224802      -2.72297615      -2.67559875       0.00000000
Si      -2.69724935      -0.01962945      -2.70287756       0.00000000
Si       2.69578977       2.70984152      -0.02018923       0.00000000
Si      -2.66458790       0.02199150       2.74398541       0.00000000
