10
Lattice="16.290000149 0.0 0.0 0.0 16.290000149 0.0 0.0 0.0 29.1751946751" Properties=species:S:1:pos:R:3:initial_magmoms:R:1 pbc="T T T"
H        0.65068777      -0.42350742       0.03918229       0.00000000
H       -1.14728842      -1.63128061       1.12864241       0.00000000
Si      -1.86303845      -1.71559766      -0.19745772       0.00000000
Si       0.86007943       1.73556920       1.75658012       0.00000000
Si      -0.07882731       0.81971281      -2.57015960       0.00000000
Si      -2.20423250       0.23407101      -1.56939207       0.00000000
Si       2.63305046       0.18120996       1.12088180       0.00000000
Si       1.40506138      -0.98274313      -2.45494676       0.00000000
Si      -0.25334208      -2.50608620      -1.71900247       0.00000000
Si      -0.36305523       3.06269922       0.24276679       0.00000000
