10
Lattice="16.290000149 0.0 0.0 0.0 16.290000149 0.0 0.0 0.0 29.1751946751" Properties=species:S:1:pos:R:3:initial_magmoms:R:1 pbc="T T T"
Si       1.36907236      -1.35817876       1.33864546       0.00000000
Si       1.39759193       1.33571485      -1.33418165       0.00000000
Si      -1.35117406       1.36081774       1.35886387       0.00000000
Si      -1.35834166      -1.34796493      -1.36642024       0.00000000
Si       0.08096130       2.76710902      -2.61447672       0.00000000
Si       2.69874966      -2.70826139      -0.05269040       0.00000000
Si       0.02114442      -2.71199180       2.69584634       0.00000000
Si      -2.71039538      -0.00379557       2.70051437       0.00000000
Si       2.68340774       0.00830790       2.73260708       0.00000000
Si      -2.71060715       2.71297246       0.00458051       0.00000000
