10
Lattice="16.290000149 0.0 0.0 0.0 16.290000149 0.0 0.0 0.0 29.1751946751" Properties=species:S:1:pos:R:3:initial_magmoms:R:1 pbc="T T T"
Si       1.37694484       1.35514882      -1.33257702       0.00000000
Si       1.36950031      -1.34172586       1.35375821       0.00000000
Si      -1.32053257       1.36879984       1.38305010       0.00000000
Si      -1.36682875      -1.36171369      -1.35250367       0.00000000
Si      -0.01931994      -2.70128927       2.66707960       0.00000000
Si      -0.00591327       2.71442227      -2.65435921       0.00000000
Si       2.72766278      -0.02117700      -2.68152132       0.00000000
Si      -2.68382639       0.01904301       2.73365739       0.00000000
Si      -2.71028135       2.71719809       0.05000628       0.00000000
Si       2.72171693      -2.71174745       0.00338432       0.00000000
