10
Lattice="16.290000149 0.0 0.0 0.0 16.290000149 0.0 0.0 0.0 29.1751946751" Properties=species:S:1:pos:R:3:initial_magmoms:R:1 pbc="T T T"
Si       1.31971807      -1.44060616       1.27656064       0.00000000
Si      -1.34947990      -1.36130644      -1.34795234       0.00000000
Si       1.38882025       1.35956341      -1.31332139       0.00000000
Si      -1.29078703       1.36822969       1.41184602       0.00000000
Si       2.74755288      -0.05191623       2.45523851       0.00000000
Si       0.01931994       2.70128927      -2.66707960       0.00000000
Si      -2.66450645       2.72033228       0.06657779       0.00000000
Si      -2.71598285      -0.00436572      -2.67682411       0.00000000
Si      -0.06499710      -2.77555539       2.61719001       0.00000000
Si       2.74103687      -0.01045818      -2.66369527       0.00000000
