10
Lattice="16.290000149 0.0 0.0 0.0 16.290000149 0.0 0.0 0.0 29.1751946751" Properties=species:S:1:pos:R:3:initial_magmoms:R:1 pbc="T T T"
Si       1.36329382       1.34975683      -1.35060729       0.00000000
Si       1.37371942      -1.35210259       1.34526823       0.00000000
Si      -1.35202114       1.36166482       1.36049768       0.00000000
Si      -1.36938628      -1.36168111      -1.35247450       0.00000000
Si      -0.00245979      -2.67203243       2.70920858       0.00000000
Si      -0.02645496       2.69815508      -2.68365111       0.00000000
Si       2.66450645      -2.72033228      -0.06657779       0.00000000
Si       2.68382639      -0.01904301      -2.73365739       0.00000000
Si       2.72489348       2.69288852       0.02637438       0.00000000
Si      -2.68845275       0.01080027       2.73082740       0.00000000
