10
Lattice="16.290000149 0.0 0.0 0.0 16.290000149 0.0 0.0 0.0 29.1751946751" Properties=species:S:1:pos:R:3:initial_magmoms:R:1 pbc="T T T"
Si       1.26053650      -0.24814557      -1.93571582       0.00000000
Si      -0.35147304       2.12421602       0.92015646       0.00000000
Si      -2.06210225      -0.69519205      -0.89792497       0.00000000
Si       1.22313466      -1.32713002       1.51381333       0.00000000
H        2.57453678      -0.70275061      -1.32732548       0.00000000
H       -2.52506405       0.29734137       1.73726614       0.00000000
H        0.36305523      -3.06269922      -0.24276679       0.00000000
H       -1.33182154       2.06350319       2.08080406       0.00000000
H       -3.18111123      -0.64374823       0.12002675       0.00000000
Si       0.28422792      -2.24298641      -2.81292639       0.00000000
