10
Lattice="16.290000149 0.0 0.0 0.0 16.290000149 0.0 0.0 0.0 29.1751946751" Properties=species:S:1:pos:R:3:initial_magmoms:R:1 pbc="T T T"
Si      -1.37030015      -1.37243577      -1.32992207       0.00000000
Si       1.34708364       1.35385865      -1.37619393       0.00000000
Si       1.40567877      -1.33772178       1.33348145       0.00000000
Si      -1.39589174       1.33668899       1.34900265       0.00000000
Si      -0.01677056       2.69973847       2.68160884       0.00000000
Si       0.06924716      -2.68858633       2.70381117       0.00000000
Si      -2.70251265      -0.00530239      -2.70118540       0.00000000
Si      -2.70026463       2.71767376      -0.02558665       0.00000000
Si      -0.00059947      -2.71227199      -2.70996713       0.00000000
Si       2.70223247       2.72296801      -0.03926981       0.00000000
