10
Lattice="16.290000149 0.0 0.0 0.0 16.290000149 0.0 0.0 0.0 29.1751946751" Properties=species:S:1:pos:R:3:initial_magmoms:R:1 pbc="T T T"
Si      -1.33757191      -1.28787112      -1.43013887       0.00000000
Si       1.35707104       1.38515500      -1.34833162       0.00000000
Si      -1.12348873       1.11531115       1.75523806       0.00000000
Si       1.33957558      -1.42218217       1.36379448       0.00000000
Si       2.40961682       0.26544555       2.74156387       0.00000000
Si       0.74077147       1.95196556       3.00609536       0.00000000
Si      -2.78189220      -0.40803192       2.49118235       0.00000000
Si       0.05654259      -2.64173303      -2.74106789       0.00000000
Si       2.74059704       0.03510495      -2.70529910       0.00000000
Si      -0.05023836      -3.24439788       2.12156181       0.00000000
