10
Lattice="16.290000149 0.0 0.0 0.0 16.290000149 0.0 0.0 0.0 29.1751946751" Properties=species:S:1:pos:R:3:initial_magmoms:R:1 pbc="T T T"
Si      -0.45840060      -1.29376810       0.63222647       0.00000000
H        0.48990546      -1.51330843      -1.84156746       0.00000000
Si       1.53088534      -0.40718484      -2.04243868       0.00000000
Si       2.70863281      -0.56723410      -0.02360273       0.00000000
Si      -1.27469251      -0.27824949       2.56636682       0.00000000
Si      -2.35416566      -1.95841640      -0.64144583       0.00000000
Si       1.55970235      -2.68195304       0.48503761       0.00000000
Si      -2.77938354       1.04488948       1.28613011       0.00000000
Si       0.28018800       1.24703209      -3.19730958       0.00000000
Si      -1.87628222       2.89204518       0.11912232       0.00000000
