10
Lattice="16.290000149 0.0 0.0 0.0 16.290000149 0.0 0.0 0.0 29.1751946751" Properties=species:S:1:pos:R:3:initial_magmoms:R:1 pbc="T T T"
Si      -1.25628481       1.33643976       1.48733479       0.00000000
Si       1.35549091      -1.38567091       1.40014677       0.00000000
Si      -1.44386416      -1.44463794      -1.27189261       0.00000000
Si       1.51998733       1.37276646      -1.28712206       0.00000000
H       -0.64371565       1.17033063      -2.73383244       0.00000000
Si      -0.02857266      -2.61160468      -2.74579427       0.00000000
Si      -2.89382404       2.50964557       0.27398425       0.00000000
Si      -2.59053031      -0.06866235       2.84043277       0.00000000
Si       0.13023855       2.61673603       2.86067452       0.00000000
Si       3.72250938       0.98890889      -0.48179916       0.00000000
