10
Lattice="10.86 0.0 0.0 0.0 10.86 0.0 0.0 0.0 10.86" Properties=species:S:1:pos:R:3:initial_magmoms:R:1 pbc="T T T"
Si       0.96132720       1.26600450      -1.61979072       0.00000000
Si      -1.53793890      -1.12368420      -1.24730358       0.00000000
Si      -1.43799432       1.55680272       1.21678698       0.00000000
Si       1.11563694      -3.40884540      -1.02573786       0.00000000
Si       2.52260424       0.17228304      -2.85115182       0.00000000
Si      -0.19239576      -2.54271696      -2.85115182       0.00000000
Si       2.52260424       2.88728304      -0.13615182       0.00000000
Si      -2.90739576      -2.54271696      -0.13615182       0.00000000
Si      -0.19239576       2.88728304       2.57884818       0.00000000
Si      -2.90739576       0.17228304       2.57884818       0.00000000
