10
Lattice="10.86 0.0 0.0 0.0 10.86 0.0 0.0 0.0 10.86" Properties=species:S:1:pos:R:3:initial_magmoms:R:1 pbc="T T T"
Si       1.33586688       1.20395046       1.19943270       0.00000000
Si      -1.37913312       1.20395046      -1.51556730       0.00000000
Si      -1.03782504      -1.60692162       1.51402518       0.00000000
Si       1.33586688      -1.51104954      -1.51556730       0.00000000
Si      -0.14329770       2.41758804       2.60571582       0.00000000
Si      -2.78610042      -2.37717798       0.30984666       0.00000000
Si       2.69336688      -0.15354954       2.55693270       0.00000000
Si       2.69336688       2.56145046      -0.15806730       0.00000000
Si      -2.94041016       2.29767192      -0.28420620       0.00000000
Si      -0.02163312       2.56145046      -2.87306730       0.00000000
