10
Lattice="10.86 0.0 0.0 0.0 10.86 0.0 0.0 0.0 10.86" Properties=species:S:1:pos:R:3:initial_magmoms:R:1 pbc="T T T"
Si       1.34673774      -1.30595844      -1.35962856       0.00000000
Si      -1.36826226      -1.30595844       1.35537144       0.00000000
Si       1.34673774       1.40904156       1.35537144       0.00000000
Si       2.70423774      -2.66345844      -0.00212856       0.00000000
Si      -0.01076226      -2.66345844       2.71287144       0.00000000
Si      -0.01076226      -2.66345844      -2.71712856       0.00000000
Si      -2.72576226      -2.66345844      -0.00212856       0.00000000
Si       2.70423774       0.05154156       2.71287144       0.00000000
Si       2.70423774       0.05154156      -2.71712856       0.00000000
Si       2.70423774       2.76654156      -0.00212856       0.00000000
