10
Lattice="10.86 0.0 0.0 0.0 10.86 0.0 0.0 0.0 10.86" Properties=species:S:1:pos:R:3:initial_magmoms:R:1 pbc="T T T"
Si       1.35750000       1.35750000       1.35750000       0.00000000
Si      -1.35750000      -1.35750000       1.35750000       0.00000000
Si      -1.35750000       1.35750000      -1.35750000       0.00000000
Si       1.35750000      -1.35750000      -1.35750000       0.00000000
Si      -2.35847706       0.04613328      -2.64921012       0.00000000
Si       2.38701714       0.04705638       2.76339216       0.00000000
Si      -0.13278522      -2.48489832      -2.69907924       0.00000000
Si      -0.08075496       2.60478186      -2.59833102       0.00000000
Si       0.08808546       2.63210562       2.78410218       0.00000000
Si      -0.02378340      -2.79989262       2.61822654       0.00000000
