10
Lattice="10.86 0.0 0.0 0.0 10.86 0.0 0.0 0.0 10.86" Properties=species:S:1:pos:R:3:initial_magmoms:R:1 pbc="T T T"
Si       1.00097706       1.31136672       1.29171012       0.00000000
Si       1.09110420      -1.16284536      -1.49335860       0.00000000
Si      -1.71402294      -1.40363328       1.29171012       0.00000000
Si      -1.71402294       1.31136672      -1.42328988       0.00000000
Si       2.22569184      -2.53103160      -0.04986912       0.00000000
Si       2.27772210       2.55864858       0.05087910       0.00000000
Si       2.35847706      -0.04613328       2.64921012       0.00000000
Si      -0.23701950       2.54724558      -2.67710946       0.00000000
Si      -0.35652294       2.66886672       2.64921012       0.00000000
Si      -0.35652294      -2.76113328       2.64921012       0.00000000
