10
Lattice="10.86 0.0 0.0 0.0 10.86 0.0 0.0 0.0 10.86" Properties=species:S:1:pos:R:3:initial_magmoms:R:1 pbc="T T T"
Si       1.14957444       1.50376248       1.16879664       0.00000000
Si       1.14957444      -1.21123752      -1.54620336       0.00000000
Si      -1.56542556      -1.21123752       1.16879664       0.00000000
Si       2.50707444       0.14626248       2.52629664       0.00000000
Si       2.50707444      -2.56873752      -0.18870336       0.00000000
Si      -0.20792556      -2.56873752       2.52629664       0.00000000
Si       2.50707444       2.86126248      -0.18870336       0.00000000
Si      -0.20792556       2.86126248       2.52629664       0.00000000
Si       2.50707444       0.14626248      -2.90370336       0.00000000
Si      -3.05571078      -2.33863584      -0.17278260       0.00000000
