10
Lattice="10.86 0.0 0.0 0.0 10.86 0.0 0.0 0.0 10.86" Properties=species:S:1:pos:R:3:initial_magmoms:R:1 pbc="T T T"
Si       1.19116824       1.13343648       1.51449216       0.00000000
Si      -1.52383176       1.13343648      -1.20050784       0.00000000
Si       1.19116824      -1.58156352      -1.20050784       0.00000000
Si       2.54866824       2.49093648       0.15699216       0.00000000
Si      -0.16633176       2.49093648      -2.55800784       0.00000000
Si       2.54866824      -0.22406352      -2.55800784       0.00000000
Si      -2.79324630      -0.30695790      -2.48890566       0.00000000
Si      -0.16633176       2.49093648       2.87199216       0.00000000
Si      -2.88133176       2.49093648       0.15699216       0.00000000
Si       2.54866824      -0.22406352       2.87199216       0.00000000
