10
Lattice="16.28999089631971 0.0 0.0 0.0 16.28999089631971 0.0 0.0 0.0 34.48637585096406" Properties=species:S:1:pos:R:3:initial_magmoms:R:1 pbc="T T T"
Si      -1.50891012      -1.04542704      -1.47084475       0.00000000
Si       2.23620975      -0.76321908      -0.28037439       0.00000000
Si       0.71804691       2.08039590      -1.19250506       0.00000000
Si      -0.84921399       0.08285094       2.46305283       0.00000000
Si      -2.36755602       1.72900431       1.76215133       0.00000000
Si       2.29584744       2.83681539       0.44680574       0.00000000
Si      -0.68916474      -0.51044715      -3.59296508       0.00000000
Si       2.56917735      -1.71708003      -2.37283642       0.00000000
Si      -2.03651879      -3.23908731      -0.74359565       0.00000000
Si      -3.53215160       0.14387328      -1.81274287       0.00000000
