10
Lattice="16.28999089631971 0.0 0.0 0.0 16.28999089631971 0.0 0.0 0.0 34.48637585096406" Properties=species:S:1:pos:R:3:initial_magmoms:R:1 pbc="T T T"
Si      -1.33682256      -1.35475459       1.38399766       0.00000000
Si       1.37446875       1.35971001       1.37913508       0.00000000
Si       1.40607135      -1.33619865      -1.39993383       0.00000000
Si      -1.33227765       1.42565193      -1.51173872       0.00000000
Si       0.64399257       2.09127762      -2.77797366       0.00000000
Si       2.52154539       0.23060124      -2.75628172       0.00000000
Si      -2.67304239      -2.72403431       0.00633515       0.00000000
Si      -2.68310961       2.73722499       0.00251061       0.00000000
Si      -2.69742852       0.00195480       2.74196844       0.00000000
Si       2.73880512      -2.70501056       0.02096083       0.00000000
