10
Lattice="16.28999089631971 0.0 0.0 0.0 16.28999089631971 0.0 0.0 0.0 34.48637585096406" Properties=species:S:1:pos:R:3:initial_magmoms:R:1 pbc="T T T"
Si      -1.35731538      -1.35714589      -1.35676376       0.00000000
Si       1.35754344      -1.35745455       1.35724657       0.00000000
Si      -1.35747828       1.35783014       1.35741900       0.00000000
Si       1.35922131       1.35696677      -1.35724657       0.00000000
Si      -2.71254564      -0.00023132      -2.71535529       0.00000000
Si       2.71476108      -2.71371593       0.00044832       0.00000000
Si       0.00017919       2.71465682       2.71442416       0.00000000
Si       2.71358820      -0.00167135      -2.71576913       0.00000000
Si       2.71467963      -0.00082102       2.71480351       0.00000000
Si      -2.71507059      -2.71459559      -0.00034486       0.00000000
