10
Lattice="16.28999089631971 0.0 0.0 0.0 16.28999089631971 0.0 0.0 0.0 34.48637585096406" Properties=species:S:1:pos:R:3:initial_magmoms:R:1 pbc="T T T"
Si       0.64161423      -2.20041152      -0.48408553       0.00000000
Si       1.99036107       1.43172810      -0.08942322       0.00000000
Si      -1.39659057      -0.19938960      -2.14532967       0.00000000
Si      -1.34464176      -0.03921003       2.21150906       0.00000000
Si       1.47155715       2.18471706      -2.33286668       0.00000000
Si      -2.57287518      -2.02536909       1.67090033       0.00000000
Si      -1.10791548      -3.51379277       0.51505431       0.00000000
Si      -3.49133796       1.08708057      -0.79711854       0.00000000
Si       2.37387654      -2.81268746       0.93106370       0.00000000
Si       0.19696239       0.67908123      -3.76032755       0.00000000
