10
Lattice="16.28999089631971 0.0 0.0 0.0 16.28999089631971 0.0 0.0 0.0 34.48637585096406" Properties=species:S:1:pos:R:3:initial_magmoms:R:1 pbc="T T T"
Si       2.08616256      -1.03942580       0.00351761       0.00000000
Si       0.08089614       0.68740542      -2.25589305       0.00000000
Si      -2.02219173      -1.19928120       0.44515039       0.00000000
Si       0.59596965       1.62504153       1.66527905       0.00000000
Si       1.09688715       2.81737179      -2.00193524       0.00000000
Si      -2.79650430      -0.18524988       2.47057086       0.00000000
Si      -3.51404622      -0.29481642      -1.29030847       0.00000000
Si       3.59551251       0.48117402      -1.07135435       0.00000000
Si      -2.20325508       0.80585001      -3.00424782       0.00000000
Si       2.40011973      -2.12029337       2.09408288       0.00000000
