10
Lattice="16.28999089631971 0.0 0.0 0.0 16.28999089631971 0.0 0.0 0.0 34.48637585096406" Properties=species:S:1:pos:R:3:initial_magmoms:R:1 pbc="T T T"
Si       0.91298934       1.88281449      -1.05066596       0.00000000
Si       1.30916214      -1.32398604       1.44074503       0.00000000
Si      -1.42219845       1.36593279       1.43997943       0.00000000
Si      -0.79615746      -1.95554934      -1.34879192       0.00000000
Si       2.68768710      -2.67377544      -0.00792842       0.00000000
Si      -2.77242768      -2.62117503      -0.08255698       0.00000000
Si       2.64940560       0.02712285       2.81573139       0.00000000
Si      -0.06568128      -2.68711695       2.80831682       0.00000000
Si      -2.64469779       2.86627437       0.07392159       0.00000000
Si      -0.06522516       2.74333374       2.80845477       0.00000000
