10
Lattice="16.28999089631971 0.0 0.0 0.0 16.28999089631971 0.0 0.0 0.0 34.48637585096406" Properties=species:S:1:pos:R:3:initial_magmoms:R:1 pbc="T T T"
Si       0.16715169      -2.24906256       0.62923877       0.00000000
Si      -1.01374299      -0.25601364      -2.10187681       0.00000000
Si      -1.11855285       1.37950236       1.57002762       0.00000000
Si       1.80216270       1.55707965      -0.53867749       0.00000000
Si      -1.92792150       2.66507658      -0.20978074       0.00000000
Si      -2.85634561       1.14455169      -1.81274287       0.00000000
Si       3.55962564      -0.43877115      -0.17605305       0.00000000
Si       0.75251655       2.28248964       2.73135698       0.00000000
Si       0.19561032       3.57557355      -0.73593967       0.00000000
Si       0.94146426      -3.26309388      -1.39618171       0.00000000
