10
Lattice="16.28999089631971 0.0 0.0 0.0 16.28999089631971 0.0 0.0 0.0 34.48637585096406" Properties=species:S:1:pos:R:3:initial_magmoms:R:1 pbc="T T T"
Si       0.20471643       2.16837819       0.85295201       0.00000000
Si      -1.77098364      -0.15596046      -1.52557466       0.00000000
Si      -0.53408394      -1.30662090       1.92596171       0.00000000
Si       2.16658629      -0.09117513      -1.09735709       0.00000000
Si      -1.41076287       1.87854651      -2.74518602       0.00000000
Si      -0.56345481       3.46729392      -1.04414459       0.00000000
Si       2.01474720      -2.14433415      -2.23420111       0.00000000
Si      -1.07551467       2.29136769       2.85440444       0.00000000
Si      -3.79369339       0.53514279      -0.54267791       0.00000000
Si      -2.13021072      -2.98600587       1.31124172       0.00000000
