10
Lattice="16.28999089631971 0.0 0.0 0.0 16.28999089631971 0.0 0.0 0.0 34.48637585096406" Properties=species:S:1:pos:R:3:initial_magmoms:R:1 pbc="T T T"
Si      -0.25604622      -0.36375570       2.27426813       0.00000000
Si      -1.43117424      -1.68057414      -0.79042818       0.00000000
Si      -0.60476625       1.96952616      -1.20436838       0.00000000
Si       2.12732739      -0.61266690      -0.90306074       0.00000000
Si       1.01239092      -1.00504413      -2.94506917       0.00000000
Si      -0.27179865       1.01566521      -3.29683040       0.00000000
Si      -1.40507766      -1.04155002      -3.04142416       0.00000000
Si       1.40295996      -2.22783669       2.33896185       0.00000000
Si       2.94352155      -2.29956156       0.56326629       0.00000000
Si       0.57340800       1.49450976       3.43835364       0.00000000
