10
Lattice="16.28999089631971 0.0 0.0 0.0 16.28999089631971 0.0 0.0 0.0 34.48637585096406" Properties=species:S:1:pos:R:3:initial_magmoms:R:1 pbc="T T T"
Si       0.80353683      -2.13153251       0.56916347       0.00000000
Si      -1.06050344      -0.74812965      -2.00817727       0.00000000
Si      -2.15463662       0.33619139       0.98510388       0.00000000
Si       1.96419933       1.16962689       0.71310968       0.00000000
Si      -2.89390940      -1.29111512      -0.58606180       0.00000000
Si       0.54403713      -1.97325887       2.96672663       0.00000000
Si       2.78464518      -2.66739206      -0.66765661       0.00000000
Si       1.50084657       3.27224235       1.74287344       0.00000000
Si      -2.44339316      -3.09215381       0.88867992       0.00000000
Si      -0.57634183      -3.99887150      -0.12694442       0.00000000
