10
Lattice="16.28999089631971 0.0 0.0 0.0 16.28999089631971 0.0 0.0 0.0 34.48637585096406" Properties=species:S:1:pos:R:3:initial_magmoms:R:1 pbc="T T T"
Si      -2.30568660       0.46038798       0.09856212       0.00000000
Si       0.51170148      -2.29957785       0.40807751       0.00000000
Si       1.04979276      -0.06028929      -2.15915871       0.00000000
Si       1.00186758       1.57872906       1.55695728       0.00000000
Si      -2.52156168       0.91647540       2.40194293       0.00000000
Si       3.27114603      -0.44294139      -1.46612012       0.00000000
Si       2.64082077      -2.52263682      -0.59257973       0.00000000
Si       1.79188371       3.41637138       0.23209344       0.00000000
Si       3.10353822       0.84900222       2.23530467       0.00000000
Si      -1.13492430      -3.73980933      -0.61316811       0.00000000
