10
Lattice="16.28999089631971 0.0 0.0 0.0 16.28999089631971 0.0 0.0 0.0 34.48637585096406" Properties=species:S:1:pos:R:3:initial_magmoms:R:1 pbc="T T T"
Si       1.35454608       1.35580041       1.36785113       0.00000000
Si       1.43106021      -1.30680498      -1.34471421       0.00000000
Si      -1.35995436      -1.36238483       1.36867881       0.00000000
Si      -1.32142851       1.36686132      -1.45201518       0.00000000
Si      -0.13623327      -2.52128149      -2.77173852       0.00000000
Si      -2.69995347       2.71665072      -0.00334173       0.00000000
Si      -2.71046052      -2.71120076       0.00605581       0.00000000
Si       2.72870532       2.70363501      -0.01570510       0.00000000
Si       0.00001629       2.71329498       2.72816699       0.00000000
Si      -2.71432125      -0.00374670       2.72720137       0.00000000
