10
Lattice="16.28999089631971 0.0 0.0 0.0 16.28999089631971 0.0 0.0 0.0 34.48637585096406" Properties=species:S:1:pos:R:3:initial_magmoms:R:1 pbc="T T T"
Si      -0.39939822      -2.29049359       0.32937956       0.00000000
Si       1.82394243       0.12390011      -1.52143629       0.00000000
Si       1.12684446       1.03229893       1.83978021       0.00000000
Si      -2.20444425       0.50285927      -0.78770375       0.00000000
Si       1.75524750      -2.64423094       1.24047563       0.00000000
Si       1.84790502      -0.91517776       2.91051380       0.00000000
Si      -2.39630787      -2.46846184       1.61375637       0.00000000
Si       0.81617787      -0.05970774      -3.77232882       0.00000000
Si      -0.37289439       2.34196606       3.07711758       0.00000000
Si      -2.05340337       1.74128860      -2.83992015       0.00000000
