10
Lattice="16.28999089631971 0.0 0.0 0.0 16.28999089631971 0.0 0.0 0.0 34.48637585096406" Properties=species:S:1:pos:R:3:initial_magmoms:R:1 pbc="T T T"
Si      -1.48424706      -1.72336050      -0.71259238       0.00000000
Si       2.20444425      -0.50285927       0.78770375       0.00000000
Si       0.15104088       1.23842933      -2.05221640       0.00000000
Si      -1.26389223       1.35359963       1.54592163       0.00000000
Si      -0.53631567       3.28347593       0.44939221       0.00000000
Si       1.80504603      -2.79335286       1.11708331       0.00000000
Si      -1.86776253       2.52105506      -1.73307930       0.00000000
Si      -2.26569465      -2.51239923       1.34924572       0.00000000
Si      -0.30071340       0.98404469       3.61069108       0.00000000
Si      -0.19186362      -2.97132111       2.40146012       0.00000000
