10
Lattice="16.28999089631971 0.0 0.0 0.0 16.28999089631971 0.0 0.0 0.0 34.48637585096406" Properties=species:S:1:pos:R:3:initial_magmoms:R:1 pbc="T T T"
Si       1.86439050      -0.35258076       1.28682535       0.00000000
Si      -0.54374391       2.24044515       0.38786849       0.00000000
Si      -0.01185912      -0.23242572      -2.35748997       0.00000000
Si      -1.50934995      -1.52059982       1.07487196       0.00000000
Si      -2.49862536       2.33619777      -0.93058089       0.00000000
Si      -2.14412238      -1.08748782      -2.61162022       0.00000000
Si      -0.83085516       2.29083012       2.67324740       0.00000000
Si       1.43738073       1.14862419       3.16219551       0.00000000
Si       1.98910674      -2.76380864       1.38262855       0.00000000
Si      -3.51461637       0.20623140      -1.18453870       0.00000000
