10
Lattice="16.28999089631971 0.0 0.0 0.0 16.28999089631971 0.0 0.0 0.0 34.48637585096406" Properties=species:S:1:pos:R:3:initial_magmoms:R:1 pbc="T T T"
Si       0.66026628       0.73274863      -2.21144009       0.00000000
Si       1.60117668      -0.86199024       1.64879455       0.00000000
Si      -0.06327036      -2.65127799      -0.31682651       0.00000000
Si      -1.19031030       1.88370229       1.64934633       0.00000000
Si      -1.23789339       2.15144473      -2.43218750       0.00000000
Si      -3.30680484      -0.90985107      -0.89036975       0.00000000
Si      -1.79527203      -2.55226737      -1.98941668       0.00000000
Si      -3.07938015      -1.39974987       1.52371240       0.00000000
Si      -1.29428937      -3.16364736       1.64607013       0.00000000
Si      -2.30578434       0.31690240       3.00569422       0.00000000
