10
Lattice="16.28999089631971 0.0 0.0 0.0 16.28999089631971 0.0 0.0 0.0 34.48637585096406" Properties=species:S:1:pos:R:3:initial_magmoms:R:1 pbc="T T T"
Si      -1.33978734      -1.35687555      -1.37104112       0.00000000
Si       1.35586557      -1.26265419       1.45146340       0.00000000
Si       1.37544615       1.35402480      -1.36990307       0.00000000
Si      -1.35822762       1.32390459       1.52916125       0.00000000
Si       2.01165210       0.57049209       2.95100083       0.00000000
Si       0.27605034       2.42022159       2.85361125       0.00000000
Si      -2.68864821       2.70562239       0.00834571       0.00000000
Si      -2.69808012      -2.71143629       0.02348524       0.00000000
Si      -2.69651628      -0.00281817      -2.73115006       0.00000000
Si       0.01723482       2.71173114      -2.73066725       0.00000000
