10
Lattice="16.28999089631971 0.0 0.0 0.0 16.28999089631971 0.0 0.0 0.0 34.48637585096406" Properties=species:S:1:pos:R:3:initial_magmoms:R:1 pbc="T T T"
Si       0.60703056       1.30279275       1.85178147       0.00000000
Si      -2.30449743       0.55840491      -0.11908152       0.00000000
Si       0.01871721      -2.36999952       0.33955305       0.00000000
Si       1.69494192       1.11465954      -1.88409522       0.00000000
Si      -0.18223623      -2.28275028       2.78532819       0.00000000
Si       1.09691973       3.37134582       0.91533790       0.00000000
Si      -3.35859075      -1.00260063       1.34759038       0.00000000
Si      -1.32028821       1.45399653       3.21109722       0.00000000
Si      -0.62275041       3.70090881      -0.67693345       0.00000000
Si      -2.90234043       0.17352108      -2.47126059       0.00000000
