10
Lattice="16.28999089631971 0.0 0.0 0.0 16.28999089631971 0.0 0.0 0.0 34.48637585096406" Properties=species:S:1:pos:R:3:initial_magmoms:R:1 pbc="T T T"
Si      -0.60444045       2.06894403      -1.04383421       0.00000000
Si       1.97972370       0.31079691       1.32641573       0.00000000
Si       0.58920930      -2.26261584      -0.57775058       0.00000000
Si      -2.21869800      -0.54780012       1.06900928       0.00000000
Si      -2.07793611       2.26895265       0.72814575       0.00000000
Si      -1.06398135      -2.18603655       2.37445728       0.00000000
Si       0.82368756      -0.98965008       3.38866767       0.00000000
Si       1.21842684       3.49093071      -0.45563425       0.00000000
Si      -3.33694134      -1.41372765      -0.87698903       0.00000000
Si       0.87632055      -2.31300081      -2.86312950       0.00000000
