10
Lattice="16.28999089631971 0.0 0.0 0.0 16.28999089631971 0.0 0.0 0.0 34.48637585096406" Properties=species:S:1:pos:R:3:initial_magmoms:R:1 pbc="T T T"
Si       1.56138021      -1.11151557      -1.36003996       0.00000000
Si       1.27355220       1.35855342       1.51120560       0.00000000
Si      -1.44001971      -1.29313278       1.57609520       0.00000000
Si      -0.70366284       1.22764698      -2.09015144       0.00000000
Si       2.59586037      -2.54588265       0.24188758       0.00000000
Si       2.47987557       2.72403009       0.04993630       0.00000000
Si      -1.67415588       3.19173228      -1.24233790       0.00000000
Si       3.56457780       0.52777971      -1.27527241       0.00000000
Si      -3.04631145      -2.43558306       0.25692364       0.00000000
Si       2.61011412       0.04364091       3.01240528       0.00000000
