10
Lattice="16.28999089631971 0.0 0.0 0.0 16.28999089631971 0.0 0.0 0.0 34.48637585096406" Properties=species:S:1:pos:R:3:initial_magmoms:R:1 pbc="T T T"
Si      -1.47349566       0.20000862       1.77197995       0.00000000
Si      -0.68857830       0.42319791      -2.21009512       0.00000000
Si       1.82286729       1.42198668       0.58819996       0.00000000
Si       0.60444045      -2.06894403       1.04383421       0.00000000
Si       1.44054099       0.20013894      -3.21075236       0.00000000
Si       1.48986711       1.75112613       2.91606611       0.00000000
Si      -1.61425755      -2.61674415       2.11284348       0.00000000
Si       3.78423216       0.21901905      -0.09263046       0.00000000
Si      -2.75768523       2.22071796       1.42021872       0.00000000
Si      -0.35855919       0.59238585       3.81398838       0.00000000
