10
Lattice="16.28999089631971 0.0 0.0 0.0 16.28999089631971 0.0 0.0 0.0 34.48637585096406" Properties=species:S:1:pos:R:3:initial_magmoms:R:1 pbc="T T T"
Si       1.59430230      -1.13233419       1.23257825       0.00000000
Si      -1.31564556      -1.36554183      -1.38597373       0.00000000
Si       1.39683492       1.29160152      -1.45122199       0.00000000
Si      -1.25231004       1.09579572       1.96410366       0.00000000
Si       2.79179649       0.95604381       1.68479835       0.00000000
Si       1.00906776       1.03030992       3.30990074       0.00000000
Si      -2.41756632       2.71002069       0.14760177       0.00000000
Si       2.82263346       2.54151693      -0.09663088       0.00000000
Si      -2.54844018       0.00285075      -2.82533241       0.00000000
Si       0.14398731      -2.72587086      -2.78239684       0.00000000
