10
Lattice="16.28999089631971 0.0 0.0 0.0 16.28999089631971 0.0 0.0 0.0 34.48637585096406" Properties=species:S:1:pos:R:3:initial_magmoms:R:1 pbc="T T T"
Si       0.36988074       2.25929987      -0.37179783       0.00000000
Si       1.08110214      -0.18166608       2.06090697       0.00000000
Si       0.47873052      -1.69606593      -1.58102878       0.00000000
Si      -2.29700403       0.08677683      -0.69676313       0.00000000
Si      -1.59510051      -1.23714405      -2.63324319       0.00000000
Si      -0.59329809       2.62885481      -2.43656727       0.00000000
Si       0.33901119      -3.65832675      -0.33034518       0.00000000
Si      -1.00061325       3.55301909       1.05528369       0.00000000
Si       3.46256982      -0.42626043       1.68838493       0.00000000
Si       1.00465317       1.82618786       3.31469435       0.00000000
