10
Lattice="16.28999089631971 0.0 0.0 0.0 16.28999089631971 0.0 0.0 0.0 34.48637585096406" Properties=species:S:1:pos:R:3:initial_magmoms:R:1 pbc="T T T"
Si      -1.94916366       1.27619118       0.67772664       0.00000000
Si      -0.67181589      -2.00586915      -1.21961136       0.00000000
Si       1.63789434       0.93390570      -1.66486521       0.00000000
Si       1.37909511      -1.42019478       1.72842364       0.00000000
Si       2.93262354      -1.98358443      -0.12477178       0.00000000
Si       0.96793551      -3.50669943      -0.57202584       0.00000000
Si       2.84969115       2.40678234      -0.24937112       0.00000000
Si       0.51186438       1.85279202      -3.49347183       0.00000000
Si       3.22414938      -0.79930143      -2.22682102       0.00000000
Si      -3.68116533       1.37520180      -0.99486353       0.00000000
