10
Lattice="16.28999089631971 0.0 0.0 0.0 16.28999089631971 0.0 0.0 0.0 34.48637585096406" Properties=species:S:1:pos:R:3:initial_magmoms:R:1 pbc="T T T"
Si       1.35459399      -1.35742152      -1.36159185       0.00000000
Si      -1.36301688       1.35777517      -1.36166083       0.00000000
Si      -1.34640108      -1.37876142       1.36172980       0.00000000
Si       1.35057851       1.35280347       1.38497363       0.00000000
Si      -0.20522142       2.57093546       2.82102161       0.00000000
Si       2.71063061      -2.71801119      -0.00127600       0.00000000
Si       2.71111931       2.71827851       0.00124151       0.00000000
Si       2.71230848      -0.00001145      -2.71852804       0.00000000
Si      -2.71515204      -2.71612155      -0.00296583       0.00000000
Si      -0.00297997       2.71477616      -2.71914880       0.00000000
