10
Lattice="16.28999089631971 0.0 0.0 0.0 16.28999089631971 0.0 0.0 0.0 34.48637585096406" Properties=species:S:1:pos:R:3:initial_magmoms:R:1 pbc="T T T"
Si       1.33654563       1.33876107       1.37393798       0.00000000
Si      -1.35845568       1.35268902      -1.35510841       0.00000000
Si       1.35402480      -1.35949335      -1.35552225       0.00000000
Si      -1.35555606      -1.35693582       1.38904302       0.00000000
Si       2.51182026      -0.14633307       2.82716019       0.00000000
Si      -0.00118917       2.71248048      -2.71290676       0.00000000
Si       2.71406171      -0.00249237      -2.71301022       0.00000000
Si      -2.71647153       2.71176372       0.00531090       0.00000000
Si       2.71541268       2.71309950       0.00700074       0.00000000
Si      -2.71634121      -0.00188964      -2.71307919       0.00000000
