10
Lattice="16.28999089631971 0.0 0.0 0.0 16.28999089631971 0.0 0.0 0.0 34.48637585096406" Properties=species:S:1:pos:R:3:initial_magmoms:R:1 pbc="T T T"
Si      -1.23421185      -1.19045106      -1.61661874       0.00000000
Si       1.28746386       1.50910234      -1.54533537       0.00000000
Si       1.46139219      -1.73039940       1.11749715       0.00000000
Si      -2.75090859      -0.65384150       0.99420829       0.00000000
Si      -1.39408191       1.78741699       2.52188662       0.00000000
Si       2.35963812      -0.15041371       2.58741077       0.00000000
Si      -2.62918971      -2.58445152      -0.29796245       0.00000000
Si      -1.74314403      -0.47023366       3.24510081       0.00000000
Si       0.14628420      -2.44059453      -3.00462718       0.00000000
Si      -2.57991246       0.29849959      -2.98345253       0.00000000
