10
Lattice="16.28999089631971 0.0 0.0 0.0 16.28999089631971 0.0 0.0 0.0 34.48637585096406" Properties=species:S:1:pos:R:3:initial_magmoms:R:1 pbc="T T T"
Si      -0.39638457      -2.29980658       0.51884781       0.00000000
Si       0.92805759       1.58969875       1.55692279       0.00000000
Si      -2.25111510       0.33468131      -0.80398133       0.00000000
Si       1.85166705       0.65450125      -1.46167137       0.00000000
Si       0.95342112      -0.92548444      -2.93158499       0.00000000
Si       0.31074804      -2.93426950      -1.63744853       0.00000000
Si      -1.90205298       2.59233196      -1.52719552       0.00000000
Si       3.57949034      -0.22240167      -0.04300453       0.00000000
Si      -1.06665291       2.66855287       2.22682102       0.00000000
Si       1.71963660       0.09142600       3.21182144       0.00000000
