10
Lattice="16.28999089631971 0.0 0.0 0.0 16.28999089631971 0.0 0.0 0.0 34.48637585096406" Properties=species:S:1:pos:R:3:initial_magmoms:R:1 pbc="T T T"
Si       1.33906197       1.35120663      -1.36321616       0.00000000
Si      -1.35425286       1.35796698       1.35766040       0.00000000
Si       1.35663120      -1.35658233       1.35886743       0.00000000
Si      -1.34208423      -1.36554183      -1.38459083       0.00000000
Si      -0.06142959       2.59983513      -2.82213897       0.00000000
Si       2.71357258      -2.71521720      -0.00455220       0.00000000
Si      -2.71624347      -2.71337643      -0.00103459       0.00000000
Si       2.71433984       2.71539639      -0.00782841       0.00000000
Si      -2.71464705      -0.00009774       2.71556221       0.00000000
Si       0.00125433      -2.71507059       2.71538978       0.00000000
