10
Lattice="16.28999089631971 0.0 0.0 0.0 16.28999089631971 0.0 0.0 0.0 34.48637585096406" Properties=species:S:1:pos:R:3:initial_magmoms:R:1 pbc="T T T"
Si      -2.00811717       0.60896907       1.03821293       0.00000000
Si       1.03690478       2.11256865      -0.21064290       0.00000000
Si       0.89621946      -1.47095442       1.67759069       0.00000000
Si      -0.21918195      -1.32791193      -2.01197078       0.00000000
Si       3.15231767       1.25828847      -0.72442122       0.00000000
Si       0.36874044       2.75191857      -2.34810967       0.00000000
Si      -1.03949748      -2.78578548       2.19333473       0.00000000
Si      -2.83164183      -1.29078702       2.05104386       0.00000000
Si      -1.96165809      -2.88714186      -1.52019478       0.00000000
Si       1.68798187      -0.09796806       3.44115596       0.00000000
