10
Lattice="16.28999089631971 0.0 0.0 0.0 16.28999089631971 0.0 0.0 0.0 34.48637585096406" Properties=species:S:1:pos:R:3:initial_magmoms:R:1 pbc="T T T"
Si       0.82352466       1.89975609      -1.01283094       0.00000000
Si       1.79214435      -1.49499846       0.14229087       0.00000000
Si      -0.57459717       0.76154121       2.13543207       0.00000000
Si      -1.87110198      -0.87498477      -1.14101687       0.00000000
Si      -1.08183519       2.71055826      -2.07456359       0.00000000
Si      -1.94168655      -3.02404302      -0.13742828       0.00000000
Si      -2.47357134      -0.55117215       2.60793017       0.00000000
Si       1.24385553       3.33353673       0.80639538       0.00000000
Si       1.43961246      -2.90823741      -1.70517981       0.00000000
Si       2.83164183       1.29078702      -2.05104386       0.00000000
