10
Lattice="16.28999089631971 0.0 0.0 0.0 16.28999089631971 0.0 0.0 0.0 34.48637585096406" Properties=species:S:1:pos:R:3:initial_magmoms:R:1 pbc="T T T"
Si       1.35549207       1.35897696      -1.35500495       0.00000000
Si      -1.35586557      -1.35713619      -1.35824667       0.00000000
Si       1.35662108      -1.35767376       1.35707413       0.00000000
Si      -1.35839052       1.35728280       1.35728105       0.00000000
Si       0.00988803       2.70514998      -2.71301022       0.00000000
Si       2.71381041      -0.00221544       2.71373443       0.00000000
Si       2.71412644       2.71404432       0.00003449       0.00000000
Si       2.71372571      -2.71490769      -0.00062076       0.00000000
Si      -0.00338832      -2.71474479       2.71425173       0.00000000
Si      -0.00221544       2.71430496       2.71514837       0.00000000
