10
Lattice="16.28999089631971 0.0 0.0 0.0 16.28999089631971 0.0 0.0 0.0 34.48637585096406" Properties=species:S:1:pos:R:3:initial_magmoms:R:1 pbc="T T T"
Si      -0.10969686       1.63597212       1.64396646       0.00000000
Si      -2.04514434      -1.12397742      -0.07145581       0.00000000
Si       0.06546904       1.19545794      -2.03855979       0.00000000
Si       2.02324148      -1.18930032       0.34189812       0.00000000
Si       2.84298686      -0.65432043      -1.78022220       0.00000000
Si       2.35379816       1.66705344      -2.15281322       0.00000000
Si      -1.86645933      -2.34028656      -2.17464310       0.00000000
Si      -3.63139938       0.60922971       0.49050000       0.00000000
Si      -2.41960257       2.08210635       1.90599409       0.00000000
Si       1.49563281      -3.38296059       1.06914722       0.00000000
