10
Lattice="16.28999089631971 0.0 0.0 0.0 16.28999089631971 0.0 0.0 0.0 34.48637585096406" Properties=species:S:1:pos:R:3:initial_magmoms:R:1 pbc="T T T"
Si       1.31947534      -1.34353404       1.39631965       0.00000000
Si       1.35979309       1.35032697      -1.35234950       0.00000000
Si      -1.39819255       1.19457828       1.45625701       0.00000000
Si      -1.35051172      -1.36226754      -1.35379793       0.00000000
Si      -2.28940216      -0.71273637       2.65331427       0.00000000
Si      -0.47049430      -2.41590474       2.63345010       0.00000000
Si       0.22649127       2.35292760       2.78036215       0.00000000
Si      -2.69723860       2.68957674       0.01065630       0.00000000
Si       2.69211961      -2.71650411      -0.00320723       0.00000000
Si       0.00375647       2.71091664      -2.71266535       0.00000000
