10
Lattice="16.28999089631971 0.0 0.0 0.0 16.28999089631971 0.0 0.0 0.0 34.48637585096406" Properties=species:S:1:pos:R:3:initial_magmoms:R:1 pbc="T T T"
Si      -0.66816434       0.63934992      -2.13746677       0.00000000
Si       2.11541288      -0.85428018      -0.51377831       0.00000000
Si      -1.03690478      -2.11256865       0.21064290       0.00000000
Si       0.07990571       2.11840047       1.32693303       0.00000000
Si       0.45193021       2.66686848      -2.36769794       0.00000000
Si      -3.04502195      -1.50359958       1.24885583       0.00000000
Si       2.47457480       2.21068332       1.64541488       0.00000000
Si       0.37694571      -0.88093062      -3.61814014       0.00000000
Si       3.71153966       0.82510479       0.10094168       0.00000000
Si      -2.05981904       2.08885041       2.46981216       0.00000000
