10
Lattice="16.28999089631971 0.0 0.0 0.0 16.28999089631971 0.0 0.0 0.0 34.48637585096406" Properties=species:S:1:pos:R:3:initial_magmoms:R:1 pbc="T T T"
Si       1.44994846      -1.71593973      -0.66996720       0.00000000
Si      -0.76097758       1.26356643      -1.85702340       0.00000000
Si      -1.86852720      -0.92833452       1.13553353       0.00000000
Si       0.54915219       1.35744570       1.88375036       0.00000000
Si      -1.56137925      -0.55006443      -3.25510186       0.00000000
Si      -1.32141126       1.16278020       3.37059680       0.00000000
Si       3.57348028      -0.80544276      -1.19612613       0.00000000
Si       1.07676085       3.55110597       1.15650126       0.00000000
Si       2.25931711      -3.00151395       1.10984117       0.00000000
Si      -2.81293995       2.40011973      -1.36003996       0.00000000
