10
Lattice="16.28999089631971 0.0 0.0 0.0 16.28999089631971 0.0 0.0 0.0 34.31052061344573" Properties=species:S:1:pos:R:3:initial_magmoms:R:1 pbc="T T T"
Si       0.11468160      -0.69737490      -2.20551581       0.00000000
Si      -0.68447322       2.23370109       0.13415421       0.00000000
Si      -1.81357289      -1.26017811       0.95297524       0.00000000
Si       2.34044946      -0.47825811       0.37590627       0.00000000
Si      -1.44779493       2.06860194       2.27540638       0.00000000
Si      -0.41412601      -2.92442967      -1.68986271       0.00000000
Si       1.27954692       3.47234612       0.02542411       0.00000000
Si      -0.71250505      -2.97602010       2.09064412       0.00000000
Si       3.44785995       0.78084486      -1.38854755       0.00000000
Si       2.67292836      -2.70326034      -0.30299638       0.00000000
