10
Lattice="16.28999089631971 0.0 0.0 0.0 16.28999089631971 0.0 0.0 0.0 34.31052061344573" Properties=species:S:1:pos:R:3:initial_magmoms:R:1 pbc="T T T"
Si       1.12902895       1.10666115      -1.73079518       0.00000000
Si      -0.90884484       1.98049652       0.87062995       0.00000000
Si       1.67852323      -1.43208648       0.83477543       0.00000000
Si      -1.99041550      -1.33011108      -0.85718022       0.00000000
Si      -2.23318537       0.59539950       2.45460145       0.00000000
Si       1.29147283      -2.90864466      -1.26725979       0.00000000
Si       0.15221865      -2.52843606       2.37334723       0.00000000
Si      -0.68613806       1.20539484      -3.23366544       0.00000000
Si       0.32342329       3.35739899      -1.35718771       0.00000000
Si      -1.09925476      -3.49677882      -0.75119496       0.00000000
