10
Lattice="16.28999089631971 0.0 0.0 0.0 16.28999089631971 0.0 0.0 0.0 34.31052061344573" Properties=species:S:1:pos:R:3:initial_magmoms:R:1 pbc="T T T"
Si      -2.32816680       0.45892188       0.01097937       0.00000000
Si       1.49824017       1.75485654       0.58715627       0.00000000
Si      -0.11145618      -2.17589507       1.02104735       0.00000000
Si      -0.88456329       0.90992682      -2.84225081       0.00000000
Si      -3.22783092      -1.38972759      -1.23792428       0.00000000
Si       1.95092298      -2.34021230       2.15507931       0.00000000
Si       2.37910563       2.45214999      -1.50184095       0.00000000
Si       0.03720636      -3.52974068      -1.21414707       0.00000000
Si      -1.35726651      -2.11080023       3.10802025       0.00000000
Si       3.40379550       1.09959129       1.78119736       0.00000000
