10
Lattice="16.28999089631971 0.0 0.0 0.0 16.28999089631971 0.0 0.0 0.0 34.31052061344573" Properties=species:S:1:pos:R:3:initial_magmoms:R:1 pbc="T T T"
Si       1.61771103       1.62210607      -0.10176506       0.00000000
Si      -2.10199644       0.93741294       0.01115093       0.00000000
Si       0.28735560      -1.11897054      -2.01718526       0.00000000
Si       0.51478029      -1.37058588       1.89987752       0.00000000
Si      -3.02083389      -0.88955847      -1.06424432       0.00000000
Si       3.44414583       0.15333940       0.18246345       0.00000000
Si       0.98624547       2.81950252       1.82209553       0.00000000
Si       2.75144616      -1.82796021       1.33605242       0.00000000
Si      -2.59525764       1.21874938       2.27293602       0.00000000
Si       0.56135340      -3.37062321      -1.46958904       0.00000000
