10
Lattice="16.28999089631971 0.0 0.0 0.0 16.28999089631971 0.0 0.0 0.0 34.31052061344573" Properties=species:S:1:pos:R:3:initial_magmoms:R:1 pbc="T T T"
Si      -1.17489996      -1.59876576       1.31992544       0.00000000
Si       1.66342077       1.26912132       1.19409496       0.00000000
Si      -1.87802523       1.78139295      -0.26698304       0.00000000
Si       1.60951716      -1.33908687      -1.57483220       0.00000000
Si       2.46031128       0.86872941      -2.11652700       0.00000000
Si       0.23666112       2.47945203       2.66298064       0.00000000
Si      -2.49111567      -0.22398750       2.66395849       0.00000000
Si      -2.93852052      -2.37180771      -0.16223297       0.00000000
Si       2.94474330      -0.22375944       2.62915388       0.00000000
Si       2.55280590       2.97391869      -0.65225610       0.00000000
