10
Lattice="16.28999089631971 0.0 0.0 0.0 16.28999089631971 0.0 0.0 0.0 34.31052061344573" Properties=species:S:1:pos:R:3:initial_magmoms:R:1 pbc="T T T"
Si       1.35545832       1.35567009      -1.35595253       0.00000000
Si      -1.35760860       1.35684297       1.35667305       0.00000000
Si       1.35835794      -1.35863487       1.35674167       0.00000000
Si      -1.35821133      -1.35817875      -1.35787392       0.00000000
Si      -2.71424143       2.71261080      -0.00010293       0.00000000
Si       2.71295289      -0.00218286       2.71454698       0.00000000
Si      -0.00030951       2.71184517       2.71605664       0.00000000
Si       0.00087966       2.71371852      -2.71502732       0.00000000
Si       2.71495656       2.71417464      -0.00020586       0.00000000
Si       0.00107514      -2.71507548       2.71461560       0.00000000
