10
Lattice="16.28999089631971 0.0 0.0 0.0 16.28999089631971 0.0 0.0 0.0 34.31052061344573" Properties=species:S:1:pos:R:3:initial_magmoms:R:1 pbc="T T T"
Si      -0.42580431       1.40291109       1.76407640       0.00000000
Si       2.23717086       0.46038798      -0.44219424       0.00000000
Si      -0.43750053      -1.82676060       1.39427741       0.00000000
Si      -1.47212730       1.22380254      -1.40103658       0.00000000
Si      -2.04498144      -0.68043330      -2.65295956       0.00000000
Si      -1.87365951      -2.96865702      -0.04275093       0.00000000
Si      -0.74798793      -2.73584034      -2.10618680       0.00000000
Si      -2.82333393       1.35668007       1.76218932       0.00000000
Si      -0.02119329       2.90615229      -2.16767128       0.00000000
Si       3.07841904      -1.43990568      -1.53000990       0.00000000
