10
Lattice="16.28999089631971 0.0 0.0 0.0 16.28999089631971 0.0 0.0 0.0 34.31052061344573" Properties=species:S:1:pos:R:3:initial_magmoms:R:1 pbc="T T T"
Si       0.45962235       0.92766663      -2.07788060       0.00000000
Si       1.15730676      -1.99169685       0.43817990       0.00000000
Si       0.82810215       1.26343611       1.80600388       0.00000000
Si      -2.34808947       0.18964818       0.21886693       0.00000000
Si      -0.37985022      -3.00485340       1.92756613       0.00000000
Si       3.13370730       0.82204227       1.61396779       0.00000000
Si      -0.31555359       3.15532413      -1.96575376       0.00000000
Si      -0.22279833       3.32762346       1.70722384       0.00000000
Si      -0.36048141       0.57249576       3.73267793       0.00000000
Si       2.97466803      -1.51407405       1.89881389       0.00000000
