10
Lattice="16.28999089631971 0.0 0.0 0.0 16.28999089631971 0.0 0.0 0.0 34.31052061344573" Properties=species:S:1:pos:R:3:initial_magmoms:R:1 pbc="T T T"
Si       2.14073895      -0.90448596       0.12718917       0.00000000
Si      -1.22657414      -2.02603291       0.26323046       0.00000000
Si      -0.20630796       1.52800200       1.81742929       0.00000000
Si      -0.40139049       1.37490858      -1.92938458       0.00000000
Si       1.96941702       1.38373776      -2.48301945       0.00000000
Si      -2.26406795       2.50613505       1.14003631       0.00000000
Si      -1.31478449       3.32171019      -0.91495916       0.00000000
Si      -3.33661784      -1.48809476      -0.61652609       0.00000000
Si      -1.20209027      -1.20280473      -3.29611063       0.00000000
Si       1.89194178      -2.97049877       1.22752818       0.00000000
