10
Lattice="16.28999089631971 0.0 0.0 0.0 16.28999089631971 0.0 0.0 0.0 34.31052061344573" Properties=species:S:1:pos:R:3:initial_magmoms:R:1 pbc="T T T"
Si       1.34951247       1.35503478      -1.39585569       0.00000000
Si      -1.36650294      -1.35475785      -1.39685070       0.00000000
Si       1.35523026      -1.42970814       1.47655408       0.00000000
Si      -1.38627900       1.44290304       1.50228698       0.00000000
Si       2.68553682       2.72868903      -0.01801303       0.00000000
Si      -2.71476434       2.70539433      -0.04189317       0.00000000
Si       2.69382843      -2.72815146      -0.02552704       0.00000000
Si      -2.72652409      -2.71625976      -0.03359002       0.00000000
Si       2.70875007      -0.00210141      -2.75863602       0.00000000
Si      -0.00747711       2.71469592      -2.75904775       0.00000000
