10
Lattice="16.28999089631971 0.0 0.0 0.0 16.28999089631971 0.0 0.0 0.0 34.31052061344573" Properties=species:S:1:pos:R:3:initial_magmoms:R:1 pbc="T T T"
Si       1.35923760      -1.35713619      -1.36278033       0.00000000
Si      -1.35698958       1.35966114      -1.36319206       0.00000000
Si       1.33602435       1.37365425       1.37784266       0.00000000
Si      -1.34951247      -1.35503478       1.39585569       0.00000000
Si      -2.71601541      -2.70979263      -0.00099501       0.00000000
Si       2.71492398      -2.71533123      -0.00288209       0.00000000
Si      -2.71456560       2.71640637      -0.00744539       0.00000000
Si       2.71368594       2.71920825      -0.00229881       0.00000000
Si      -2.71386513       0.00066789      -2.72061994       0.00000000
Si       0.00166158      -2.71419093      -2.72051701       0.00000000
