10
Lattice="16.28999089631971 0.0 0.0 0.0 16.28999089631971 0.0 0.0 0.0 34.31052061344573" Properties=species:S:1:pos:R:3:initial_magmoms:R:1 pbc="T T T"
Si       0.35126127      -1.86388551       1.32064699       0.00000000
Si       1.24967106       1.90307925       0.51067807       0.00000000
Si      -2.15254431       0.54358101       0.88305036       0.00000000
Si       1.28549277      -0.52074243      -2.17504805       0.00000000
Si      -1.36000323       1.54204398       2.96504823       0.00000000
Si      -0.87285078      -3.49868475       0.14118787       0.00000000
Si      -2.94868548       1.84404429      -0.99342737       0.00000000
Si       0.88076772       3.33852147      -1.36991692       0.00000000
Si       0.66810177       2.67871131       2.61545814       0.00000000
Si       2.60970687      -2.45930130       1.34346350       0.00000000
