10
Lattice="16.28999089631971 0.0 0.0 0.0 16.28999089631971 0.0 0.0 0.0 34.31052061344573" Properties=species:S:1:pos:R:3:initial_magmoms:R:1 pbc="T T T"
Si      -0.03862685      -2.31547363       0.03444778       0.00000000
Si       1.92652708       0.48902580       1.23191993       0.00000000
Si       0.11713162       0.72459549      -2.23402787       0.00000000
Si      -1.84378432       0.99336420       1.15770623       0.00000000
Si       0.69914725       3.47338638      -0.09164345       0.00000000
Si      -0.90603418      -2.72264055       2.18410603       0.00000000
Si      -1.55370829       3.28932567       0.55819817       0.00000000
Si       1.51450411       2.61744462      -2.11932773       0.00000000
Si       3.72842914      -0.07249050      -0.14585410       0.00000000
Si      -1.63378993      -3.02644091      -1.50314475       0.00000000
