10
Lattice="16.28999089631971 0.0 0.0 0.0 16.28999089631971 0.0 0.0 0.0 34.31052061344573" Properties=species:S:1:pos:R:3:initial_magmoms:R:1 pbc="T T T"
Si      -1.52244711       1.19107593      -1.28043503       0.00000000
Si       2.09622978       0.49765950      -0.94580434       0.00000000
Si      -0.13859532       1.11304683       2.09057550       0.00000000
Si      -0.33808266      -2.28542184      -0.64603315       0.00000000
Si       1.65180600      -0.96402591      -2.74100040       0.00000000
Si       2.10773052       0.64047393       2.84334874       0.00000000
Si      -3.56824305       0.10702530      -0.72065858       0.00000000
Si      -0.51417756       3.41791893       1.35286458       0.00000000
Si       3.61608678       0.04730616       0.86826252       0.00000000
Si      -1.88299368      -3.22131492       0.92442887       0.00000000
