10
Lattice="16.28999089631971 0.0 0.0 0.0 16.28999089631971 0.0 0.0 0.0 34.31052061344573" Properties=species:S:1:pos:R:3:initial_magmoms:R:1 pbc="T T T"
Si       1.34545626       1.33517727      -1.36797495       0.00000000
Si       1.35220032      -1.35744570       1.35928065       0.00000000
Si      -1.36221867       1.35767376       1.35845720       0.00000000
Si      -1.36598166      -1.37209041      -1.38411119       0.00000000
Si      -0.04644279       2.44589463      -2.90916322       0.00000000
Si       2.70659979      -2.71264338       0.00003431       0.00000000
Si       2.71005327       0.00037467       2.71574785       0.00000000
Si      -2.71671425       2.71117728      -0.00209294       0.00000000
Si      -2.71436686      -2.71414206      -0.00339674       0.00000000
Si       2.70899442       2.71963179      -0.00336243       0.00000000
