10
Lattice="16.28999089631971 0.0 0.0 0.0 16.28999089631971 0.0 0.0 0.0 34.31052061344573" Properties=species:S:1:pos:R:3:initial_magmoms:R:1 pbc="T T T"
Si      -1.23716164      -1.19548400      -1.57466648       0.00000000
Si      -1.38748187       1.30597582       1.37064431       0.00000000
Si       1.35603824      -1.42545857       1.34232095       0.00000000
Si       0.88827089       1.87822723      -1.44977612       0.00000000
Si      -2.56150217      -2.58058102       0.00930502       0.00000000
Si       2.65189145       2.65126918       0.03238229       0.00000000
Si      -2.73533276       2.59946698      -0.08979411       0.00000000
Si      -0.00489352       0.18141847      -3.80248414       0.00000000
Si      -0.01987543       2.66680984       2.73187037       0.00000000
Si       2.69957228      -0.05209379       2.73066950       0.00000000
