10
Lattice="16.28999089631971 0.0 0.0 0.0 16.28999089631971 0.0 0.0 0.0 34.31052061344573" Properties=species:S:1:pos:R:3:initial_magmoms:R:1 pbc="T T T"
Si       0.91883745       1.82697141       1.07539525       0.00000000
Si      -0.12978243      -2.21052042       0.71050266       0.00000000
Si      -2.34536904       0.27089262       0.06673400       0.00000000
Si       1.24581033      -0.06509484      -2.08697289       0.00000000
Si      -2.07264186      -2.03419746      -0.56794237       0.00000000
Si      -2.09657187       2.33690543      -1.03360501       0.00000000
Si       3.02083389       0.88955847       1.06424432       0.00000000
Si       3.30818949      -0.22941207      -0.95294093       0.00000000
Si      -0.66041289       3.47880185       0.40342333       0.00000000
Si      -2.85032646       0.23912029       2.36783897       0.00000000
