10
Lattice="16.28999089631971 0.0 0.0 0.0 16.28999089631971 0.0 0.0 0.0 34.31052061344573" Properties=species:S:1:pos:R:3:initial_magmoms:R:1 pbc="T T T"
Si      -1.10688921      -1.67511699       1.32540384       0.00000000
Si       0.99955440      -1.17297774      -1.95436266       0.00000000
Si       1.69963344       1.11029382       1.46405959       0.00000000
Si      -1.82439855       1.77148863       0.08248254       0.00000000
Si      -2.36980404      -0.25216920       2.78913950       0.00000000
Si       0.36028593       2.48684769       2.80644917       0.00000000
Si      -1.70869068       2.83092574      -2.00871055       0.00000000
Si       3.00965895       2.43309069       0.04872097       0.00000000
Si       3.24848664      -1.66654845      -1.68471612       0.00000000
Si      -3.76170309       0.85854816       1.24795123       0.00000000
