10
Lattice="16.28999089631971 0.0 0.0 0.0 16.28999089631971 0.0 0.0 0.0 34.31052061344573" Properties=species:S:1:pos:R:3:initial_magmoms:R:1 pbc="T T T"
Si      -0.93217896       0.71903522       2.02463064       0.00000000
Si       1.43405757       1.75824437      -0.58255866       0.00000000
Si       1.23613407      -1.97246604       0.61065899       0.00000000
Si      -1.84184514      -0.11094319      -1.55190003       0.00000000
Si       0.08508267      -3.25914798      -1.08815877       0.00000000
Si       2.59146207      -0.73092369       2.20496684       0.00000000
Si       0.90865620       0.36010788       3.43729850       0.00000000
Si      -2.89619910      -0.51960981       2.13336074       0.00000000
Si       1.92731877       1.47690793      -2.84434375       0.00000000
Si       0.17616006       3.62224391      -1.17493012       0.00000000
