10
Lattice="16.28999089631971 0.0 0.0 0.0 16.28999089631971 0.0 0.0 0.0 34.31052061344573" Properties=species:S:1:pos:R:3:initial_magmoms:R:1 pbc="T T T"
Si      -1.15730676       1.99169685      -0.43817990       0.00000000
Si       0.63146556      -1.19739645      -1.92386059       0.00000000
Si      -1.53715698      -1.01315655       1.48938622       0.00000000
Si       1.81736127       0.47762280       1.46063399       0.00000000
Si      -0.98624547      -2.81950252      -1.82209553       0.00000000
Si      -0.32920461       3.25513296       1.36782398       0.00000000
Si       1.97640054       2.81373912       1.17578789       0.00000000
Si      -0.67901607      -3.04715690       2.14547236       0.00000000
Si      -0.69768441       2.91936348      -2.51606050       0.00000000
Si      -1.81726353       0.21072744       3.49257278       0.00000000
