10
Lattice="16.28999089631971 0.0 0.0 0.0 16.28999089631971 0.0 0.0 0.0 34.31052061344573" Properties=species:S:1:pos:R:3:initial_magmoms:R:1 pbc="T T T"
Si       1.35785295       1.35641943       1.35708478       0.00000000
Si       1.35759231      -1.35669636      -1.35773668       0.00000000
Si      -1.35803214       1.35777150      -1.35766806       0.00000000
Si      -1.36003581      -1.35858600       1.35708478       0.00000000
Si      -2.70796815      -0.00037467       2.71403232       0.00000000
Si      -0.00324171      -2.70788670       2.71653699       0.00000000
Si       2.71500543       0.00140094      -2.71272852       0.00000000
Si       2.71523349      -2.71441899       0.00017155       0.00000000
Si      -2.71463076      -2.71503801      -0.00072052       0.00000000
Si       2.71917567      -0.00172674       2.71115023       0.00000000
