10
Lattice="16.28999089631971 0.0 0.0 0.0 16.28999089631971 0.0 0.0 0.0 34.31052061344573" Properties=species:S:1:pos:R:3:initial_magmoms:R:1 pbc="T T T"
Si       1.84396284       1.34390871      -0.36386327       0.00000000
Si      -1.09957500      -0.20269647      -2.08405650       0.00000000
Si       0.28171926      -2.34600435       0.11514617       0.00000000
Si      -0.95531076       0.27875448       2.20434925       0.00000000
Si      -1.39905036      -2.55616164      -1.88598175       0.00000000
Si       1.00238886       3.56376330      -0.50024767       0.00000000
Si      -2.95178058       1.23103530      -2.01454334       0.00000000
Si      -1.80610488      -1.92906180       2.74604405       0.00000000
Si       3.28196259       0.59626287      -2.09033533       0.00000000
Si       1.85029965      -3.09801591      -1.60213066       0.00000000
