10
Lattice="16.28999089631971 0.0 0.0 0.0 16.28999089631971 0.0 0.0 0.0 34.31052061344573" Properties=species:S:1:pos:R:3:initial_magmoms:R:1 pbc="T T T"
Si      -1.35754344      -1.35785295       1.35993256       0.00000000
Si      -1.36089918       1.35927018      -1.35591822       0.00000000
Si       1.35806472       1.35811359       1.36024135       0.00000000
Si       1.36228383      -1.36308204      -1.35766806       0.00000000
Si       2.68151319       0.01863576      -2.72444214       0.00000000
Si      -2.70505224      -0.00754227      -2.71176782       0.00000000
Si       2.71549413      -2.71422351       0.00487210       0.00000000
Si      -2.71529865       2.71446786       0.00332812       0.00000000
Si       2.71611315       2.71443528       0.00542107       0.00000000
Si       0.00057015       2.71440270       2.71698302       0.00000000
