10
Lattice="16.28999089631971 0.0 0.0 0.0 16.28999089631971 0.0 0.0 0.0 34.31052061344573" Properties=species:S:1:pos:R:3:initial_magmoms:R:1 pbc="T T T"
Si      -1.35783666      -1.35630540      -1.35866307       0.00000000
Si       1.35710361       1.35909099      -1.35825134       0.00000000
Si       1.36028016      -1.36001952       1.35560943       0.00000000
Si      -1.36062225       1.36267479       1.35982962       0.00000000
Si      -0.00381186      -2.69550630       2.72370789       0.00000000
Si      -0.00034209      -2.71259451      -2.71540474       0.00000000
Si       2.71441899      -2.71358820      -0.00226450       0.00000000
Si      -2.71507059      -2.71366965      -0.00065190       0.00000000
Si       2.71358820       0.00167787      -2.71519888       0.00000000
Si       2.71396287       2.71492398      -0.00099501       0.00000000
