10
Lattice="16.28999089631971 0.0 0.0 0.0 16.28999089631971 0.0 0.0 0.0 34.31052061344573" Properties=species:S:1:pos:R:3:initial_magmoms:R:1 pbc="T T T"
Si       1.31621571      -1.37477826      -1.34403305       0.00000000
Si       1.36120869       1.35267273       1.35590107       0.00000000
Si      -1.35555117      -1.35923760       1.35545503       0.00000000
Si      -1.21889762       1.22820084      -1.60488236       0.00000000
Si      -0.44740485      -2.14782021      -2.82619145       0.00000000
Si       0.61309044       2.00538045      -2.93094153       0.00000000
Si      -2.27144176      -0.51846183      -2.78234258       0.00000000
Si       2.49111567       0.22398750      -2.66395849       0.00000000
Si      -2.69364014       2.68245801      -0.01696656       0.00000000
Si       0.00296478       2.70891297       2.71394654       0.00000000
