10
Lattice="16.28999089631971 0.0 0.0 0.0 16.28999089631971 0.0 0.0 0.0 34.31052061344573" Properties=species:S:1:pos:R:3:initial_magmoms:R:1 pbc="T T T"
Si       1.87616817       1.41086061       0.42668587       0.00000000
Si      -1.85950350       1.02745917      -1.11691100       0.00000000
Si       2.08386567      -1.30665348       1.31886284       0.00000000
Si       1.66806342      -1.96729606      -1.16580352       0.00000000
Si      -2.65465098       0.78783327       1.08496789       0.00000000
Si      -0.22061547       2.27541978      -2.30707501       0.00000000
Si       2.59635544      -0.31011273      -2.48123531       0.00000000
Si      -1.60963119       2.37122127       2.36056514       0.00000000
Si      -0.08382834      -3.05267726      -2.40702161       0.00000000
Si      -3.06268290      -0.53936190      -2.35631063       0.00000000
