10
Lattice="16.28999089631971 0.0 0.0 0.0 16.28999089631971 0.0 0.0 0.0 34.31052061344573" Properties=species:S:1:pos:R:3:initial_magmoms:R:1 pbc="T T T"
Si       1.44485037      -1.71045016      -1.14954033       0.00000000
Si      -0.43732134      -2.49400619       0.07743889       0.00000000
Si      -0.41580225      -0.66064258      -2.48466636       0.00000000
Si      -2.08386567       1.30665348      -1.31886284       0.00000000
Si      -0.20769750       2.71751409      -0.89217697       0.00000000
Si       0.80069978       2.57771331       1.36672604       0.00000000
Si      -2.13452757      -0.28529003       2.67958454       0.00000000
Si       0.65305211      -2.62789370       2.15394707       0.00000000
Si       1.74318543       2.24463168      -2.26816685       0.00000000
Si      -0.02448387      -0.82322818       3.55934109       0.00000000
