10
Lattice="16.28999089631971 0.0 0.0 0.0 16.28999089631971 0.0 0.0 0.0 34.31052061344573" Properties=species:S:1:pos:R:3:initial_magmoms:R:1 pbc="T T T"
Si      -2.34372375      -0.30143016      -0.18479657       0.00000000
Si       0.89782335       2.05817634      -0.78306945       0.00000000
Si       0.86123601      -1.77512130      -1.35687892       0.00000000
Si       1.20143637      -1.06319943       1.82858022       0.00000000
Si       0.11028330      -0.62631792      -3.27998467       0.00000000
Si       0.66619584       1.66213386      -3.15454534       0.00000000
Si       3.11544621       2.20744161       0.03293812       0.00000000
Si      -0.38880972      -3.81468536      -0.94872074       0.00000000
Si      -0.29913327      -2.24498843       3.27446895       0.00000000
Si      -3.19466448      -2.37625977       0.52412781       0.00000000
