10
Lattice="16.28999089631971 0.0 0.0 0.0 16.28999089631971 0.0 0.0 0.0 34.31052061344573" Properties=species:S:1:pos:R:3:initial_magmoms:R:1 pbc="T T T"
Si      -1.35451350       1.32639696       1.35073733       0.00000000
Si      -1.36547667      -1.34392500      -1.34517902       0.00000000
Si       1.35511623       1.36549296      -1.34867870       0.00000000
Si       1.27154853      -1.37705886       1.43291107       0.00000000
Si      -2.31085053      -0.60290919       2.50086093       0.00000000
Si       0.40037562       2.20131657       2.65031765       0.00000000
Si       2.14114850       0.46064862       2.71893873       0.00000000
Si      -0.46752300      -2.29325733       2.80543560       0.00000000
Si      -0.00718389      -2.70433548      -2.70380778       0.00000000
Si       2.70430846      -2.70407484       0.02127253       0.00000000
