10
Lattice="16.28999089631971 0.0 0.0 0.0 16.28999089631971 0.0 0.0 0.0 34.31052061344573" Properties=species:S:1:pos:R:3:initial_magmoms:R:1 pbc="T T T"
Si      -1.32714630      -1.26271935      -1.46756472       0.00000000
Si      -0.73414143       1.37508777       1.77258542       0.00000000
Si       1.44757827       1.36705680      -1.36480465       0.00000000
Si      -0.19430712      -2.26582497       0.95980304       0.00000000
Si      -2.65341131      -2.65212603      -0.05005908       0.00000000
Si       0.79869870       1.27637037       3.51648722       0.00000000
Si       0.07648155      -2.63940354      -2.85817090       0.00000000
Si      -2.63417608       0.08050518      -2.87494875       0.00000000
Si       0.09234801       2.79676494      -2.84135873       0.00000000
Si       2.78617644       0.06861348      -2.86688577       0.00000000
