10
Lattice="16.28999089631971 0.0 0.0 0.0 16.28999089631971 0.0 0.0 0.0 34.31052061344573" Properties=species:S:1:pos:R:3:initial_magmoms:R:1 pbc="T T T"
Si       1.35451350      -1.32639696      -1.35073733       0.00000000
Si       1.75488912       0.87491961       1.29958032       0.00000000
Si      -1.38175038       1.40139612      -1.32123027       0.00000000
Si      -0.95633703      -1.92930615       1.15012360       0.00000000
Si       0.71918721       1.00779714       3.44645941       0.00000000
Si       2.62606203      -2.70345582       0.08217374       0.00000000
Si      -0.01096317      -2.67032196      -2.69591635       0.00000000
Si       2.68863192       2.70586674       0.03698676       0.00000000
Si       2.70962973       0.03909600      -2.69941603       0.00000000
Si      -2.72054403       0.03733668      -2.69824947       0.00000000
