10
Lattice="16.28999089631971 0.0 0.0 0.0 16.28999089631971 0.0 0.0 0.0 34.31052061344573" Properties=species:S:1:pos:R:3:initial_magmoms:R:1 pbc="T T T"
Si      -0.30235869      -0.56808117      -2.25427109       0.00000000
Si      -2.26162215       0.40770612       0.47530391       0.00000000
Si       0.89073720      -0.50324697       2.13528213       0.00000000
Si       1.32175431       1.78572609      -0.82763884       0.00000000
Si       0.21952404       1.77947073      -2.96079372       0.00000000
Si      -0.18507069       1.34574948       3.19966370       0.00000000
Si      -2.57136021       2.48073894      -0.64593022       0.00000000
Si       1.18959354      -2.46174480      -2.50144421       0.00000000
Si      -2.47591710       1.13567364       2.72418824       0.00000000
Si       3.51663863       1.01353122      -1.28307695       0.00000000
