10
Lattice="16.28999089631971 0.0 0.0 0.0 16.28999089631971 0.0 0.0 0.0 34.31052061344573" Properties=species:S:1:pos:R:3:initial_magmoms:R:1 pbc="T T T"
Si      -0.32664708      -0.58710789      -2.25948629       0.00000000
Si      -1.74781926       1.54970028       0.44840444       0.00000000
Si       2.27564784      -0.00459378       0.78341255       0.00000000
Si      -0.96650199      -1.74516399       1.45178187       0.00000000
Si      -2.78107767      -1.91348856      -0.29263459       0.00000000
Si       1.92182904      -1.04244597      -2.72840843       0.00000000
Si      -1.34307792      -2.66113440      -2.01910665       0.00000000
Si      -3.62265165       0.30636603      -0.42901899       0.00000000
Si      -0.91469979      -0.80311329       3.77151747       0.00000000
Si       2.33277687       1.30691412      -3.05525064       0.00000000
