10
Lattice="16.28999089631971 0.0 0.0 0.0 16.28999089631971 0.0 0.0 0.0 34.31052061344573" Properties=species:S:1:pos:R:3:initial_magmoms:R:1 pbc="T T T"
Si       0.22045257      -1.36334268       1.92760871       0.00000000
Si      -1.16967087       1.96287984       0.63437241       0.00000000
Si      -0.05180220      -0.94205070      -2.31973560       0.00000000
Si       2.18440755       0.41684481       2.10148423       0.00000000
Si      -2.95029819       0.79604343       1.75748333       0.00000000
Si      -1.50273621      -0.53862885       3.27089379       0.00000000
Si      -1.28800143       3.43544697      -1.20244718       0.00000000
Si       0.91469979       0.80311329      -3.77151747       0.00000000
Si       1.21606479      -3.07639908      -2.27894036       0.00000000
Si       0.02461419       3.58122618       1.89883589       0.00000000
