10
Lattice="16.28999089631971 0.0 0.0 0.0 16.28999089631971 0.0 0.0 0.0 34.31052061344573" Properties=species:S:1:pos:R:3:initial_magmoms:R:1 pbc="T T T"
Si      -1.52106246       1.17185373       1.36404639       0.00000000
Si       1.19327508      -1.54779435       1.35147844       0.00000000
Si      -1.28371716      -1.41312492      -1.46693825       0.00000000
Si       1.32434053       1.38509702      -1.58397150       0.00000000
Si       2.23318537      -0.59539950      -2.45460145       0.00000000
Si       2.56150217       2.58058102      -0.00930502       0.00000000
Si      -2.75662638       2.49531102      -0.13883760       0.00000000
Si      -0.17365140       2.53216877       2.72640813       0.00000000
Si       2.54579373      -0.18928980       2.71985482       0.00000000
Si       0.24276987      -1.92551058      -3.31178166       0.00000000
