10
Lattice="16.28999089631971 0.0 0.0 0.0 16.28999089631971 0.0 0.0 0.0 34.31052061344573" Properties=species:S:1:pos:R:3:initial_magmoms:R:1 pbc="T T T"
Si       1.10106783      -1.71584199       1.13766888       0.00000000
Si       1.81357289       1.26017811      -0.95297524       0.00000000
Si      -1.16178651       1.55631402       1.43229348       0.00000000
Si      -0.70952724      -1.58630391      -1.73350571       0.00000000
Si       1.39944688      -1.66425156      -2.64283795       0.00000000
Si       2.44070531      -2.52713286      -0.69619516       0.00000000
Si       0.36577796       3.32878005       1.32243114       0.00000000
Si      -0.76665627      -2.89781181       2.10515748       0.00000000
Si      -2.11069530       1.59870060      -2.54422946       0.00000000
Si       1.92825449       0.56280321      -3.15849105       0.00000000
