10
Lattice="16.28999089631971 0.0 0.0 0.0 16.28999089631971 0.0 0.0 0.0 34.31052061344573" Properties=species:S:1:pos:R:3:initial_magmoms:R:1 pbc="T T T"
Si       1.52756447       1.77246603      -0.10986235       0.00000000
Si      -2.16259524       0.77152698      -0.60122359       0.00000000
Si       0.22328703      -0.76303989       2.26662288       0.00000000
Si       1.16178651      -1.55631402      -1.43229348       0.00000000
Si      -2.86578567       2.08808478       1.21637726       0.00000000
Si       2.29088618       1.93756518      -2.25111452       0.00000000
Si       2.97535940      -0.29613591      -2.38526873       0.00000000
Si       2.21370253       0.56707119       3.12380309       0.00000000
Si       1.11444777      -2.92970763       2.37260814       0.00000000
Si       2.26285434      -3.27215601      -0.29462461       0.00000000
