10
Lattice="16.28999089631971 0.0 0.0 0.0 16.28999089631971 0.0 0.0 0.0 34.31052061344573" Properties=species:S:1:pos:R:3:initial_magmoms:R:1 pbc="T T T"
Si      -0.11713162      -0.72459549       2.23402787       0.00000000
Si       1.39737249       1.89284913       0.11470013       0.00000000
Si      -2.05775999       0.97813305      -0.67739299       0.00000000
Si       0.20630796      -1.52800200      -1.81742929       0.00000000
Si      -1.10847653       1.79370819      -2.73238846       0.00000000
Si       0.58201564       2.74879089       2.14238441       0.00000000
Si       0.91422738       2.87231796      -1.99309926       0.00000000
Si      -0.19508252      -0.15309342      -3.74681388       0.00000000
Si       2.34704691      -2.43248796      -1.69024012       0.00000000
Si      -0.15575846      -3.04006912       2.26847565       0.00000000
