10
Lattice="16.28999089631971 0.0 0.0 0.0 16.28999089631971 0.0 0.0 0.0 34.31052061344573" Properties=species:S:1:pos:R:3:initial_magmoms:R:1 pbc="T T T"
Si      -1.09987866      -1.73281617       1.08493358       0.00000000
Si      -1.34321868       1.99283715      -0.44023854       0.00000000
Si      -0.43566611      -0.49459698      -2.38128870       0.00000000
Si       2.43689929       0.30618684       0.51808915       0.00000000
Si       1.79390041       0.00319284      -2.88112465       0.00000000
Si       0.52450542       3.17480697      -1.40772714       0.00000000
Si      -0.62390115       3.51725535       1.25950561       0.00000000
Si      -3.31750152      -1.88208144       0.26892601       0.00000000
Si       2.75243659      -0.06854832       2.90147080       0.00000000
Si      -0.13209561      -2.59239060       3.05006974       0.00000000
