10
Lattice="16.28999089631971 0.0 0.0 0.0 16.28999089631971 0.0 0.0 0.0 34.31052061344573" Properties=species:S:1:pos:R:3:initial_magmoms:R:1 pbc="T T T"
Si       0.31553730      -0.37473516       2.38338165       0.00000000
Si      -2.43689929      -0.30618684      -0.51808915       0.00000000
Si       1.12265793       2.20457457       0.59110198       0.00000000
Si       1.11249297      -1.27101096      -2.11459288       0.00000000
Si      -0.64299888      -0.30299400      -3.39921380       0.00000000
Si      -0.67007286       3.79920267       0.22535163       0.00000000
Si      -1.91239387       2.86862013      -1.92581629       0.00000000
Si       2.19356253      -2.15612811       2.65036469       0.00000000
Si      -3.53677796      -2.03900301       0.56684443       0.00000000
Si      -2.87256541      -0.80078382      -2.89937785       0.00000000
