10
Lattice="16.28999089631971 0.0 0.0 0.0 16.28999089631971 0.0 0.0 0.0 34.31052061344573" Properties=species:S:1:pos:R:3:initial_magmoms:R:1 pbc="T T T"
Si       1.51112230      -1.14872193       1.41909079       0.00000000
Si       1.52630458       1.09634958      -1.53857179       0.00000000
Si      -1.19212893       1.57604121       1.43273266       0.00000000
Si      -1.18384628      -1.93945482      -1.03493626       0.00000000
Si      -0.15221865       2.52843606      -2.37334723       0.00000000
Si      -1.25147340      -0.96834276      -3.12454218       0.00000000
Si       0.16273710      -2.49077358       2.79980524       0.00000000
Si      -2.55431502       0.22134852       2.80193249       0.00000000
Si       1.13925418      -0.38020860      -3.64060701       0.00000000
Si       2.83066117       2.66926311      -0.10596124       0.00000000
