10
Lattice="16.28999089631971 0.0 0.0 0.0 16.28999089631971 0.0 0.0 0.0 34.31052061344573" Properties=species:S:1:pos:R:3:initial_magmoms:R:1 pbc="T T T"
Si      -0.31289995       0.82414368      -2.18812036       0.00000000
Si       2.15029466      -1.04599719      -0.23825239       0.00000000
Si       0.20773985       1.93174965       1.56785443       0.00000000
Si      -2.11930524      -1.54352637       0.34948716       0.00000000
Si       0.99054440       0.59681673       3.32311302       0.00000000
Si      -3.61125747       0.35013726       0.59666029       0.00000000
Si       0.39784904      -1.71471798       3.32771063       0.00000000
Si      -1.18249992      -1.01356380      -3.47414802       0.00000000
Si      -1.98714447       2.70394452       2.02329253       0.00000000
Si      -2.05367283       2.56481163      -2.25674144       0.00000000
