10
Lattice="16.28999089631971 0.0 0.0 0.0 16.28999089631971 0.0 0.0 0.0 34.31052061344573" Properties=species:S:1:pos:R:3:initial_magmoms:R:1 pbc="T T T"
Si      -0.47568592       1.28927205       1.82679607       0.00000000
Si      -0.70295585      -2.15485749       0.39673277       0.00000000
Si      -0.93315310       1.03764042      -1.87133115       0.00000000
Si       2.34325134      -0.21836745       0.08141891       0.00000000
Si       0.11240100      -3.01079925      -1.63095151       0.00000000
Si       0.82165131      -2.84307741       2.02747842       0.00000000
Si       0.05312169       3.51632682       1.31114297       0.00000000
Si       0.22195125       0.28020429      -3.74334851       0.00000000
Si       3.26707353       1.68621048       0.92099782       0.00000000
Si      -3.18675473       0.09835902      -2.08024803       0.00000000
