10
Lattice="16.28999089631971 0.0 0.0 0.0 16.28999089631971 0.0 0.0 0.0 34.31052061344573" Properties=species:S:1:pos:R:3:initial_magmoms:R:1 pbc="T T T"
Si      -1.10106783       1.71584199      -1.13766888       0.00000000
Si       1.33963747      -0.81129087      -1.83386404       0.00000000
Si      -1.86772410      -1.18196982       0.96748860       0.00000000
Si       1.24232101       0.93058254       2.15116791       0.00000000
Si      -1.14840657       0.34244838       2.66723274       0.00000000
Si      -1.81059507       0.12953808      -2.87117459       0.00000000
Si      -0.52450542      -3.17480697       1.40772714       0.00000000
Si       0.71250505       2.97602010      -2.09064412       0.00000000
Si       1.26939499      -3.17161413      -1.47339751       0.00000000
Si       0.29837904       0.05159043      -3.78050683       0.00000000
