10
Lattice="16.28999089631971 0.0 0.0 0.0 16.28999089631971 0.0 0.0 0.0 34.31052061344573" Properties=species:S:1:pos:R:3:initial_magmoms:R:1 pbc="T T T"
Si       1.79273079      -1.59462810       0.36575035       0.00000000
Si      -2.39072759      -0.58813416       0.51606483       0.00000000
Si       0.38705040       1.47655818       2.10203522       0.00000000
Si      -1.24232101      -0.93058254      -2.15116791       0.00000000
Si      -1.29147283       2.90864466       1.26725979       0.00000000
Si      -3.28188833       1.57853358       0.41007957       0.00000000
Si       3.52696419      -0.73585188      -1.17379788       0.00000000
Si      -2.32310046      -1.55924622       2.60567075       0.00000000
Si      -1.13925418       0.38020860       3.64060701       0.00000000
Si       0.67007286      -3.79920267      -0.22535163       0.00000000
