10
Lattice="16.28999089631971 0.0 0.0 0.0 16.28999089631971 0.0 0.0 0.0 34.31052061344573" Properties=species:S:1:pos:R:3:initial_magmoms:R:1 pbc="T T T"
Si      -1.35703387       1.35771774       1.35629564       0.00000000
Si       1.35691465       1.35718017      -1.35807979       0.00000000
Si       1.35865768      -1.35817663       1.35677599       0.00000000
Si      -1.35965845      -1.35820669      -1.35873169       0.00000000
Si      -2.71603237       0.00194503      -2.71183644       0.00000000
Si      -2.71334452       2.71482135       0.00041173       0.00000000
Si       0.00007331       2.71198689       2.71643406       0.00000000
Si       0.00280025      -2.71485460       2.71372352       0.00000000
Si      -2.71406128      -2.71506637      -0.00024017       0.00000000
Si      -2.71433821      -0.00110609       2.71489008       0.00000000
