10
Lattice="16.28999089631971 0.0 0.0 0.0 16.28999089631971 0.0 0.0 0.0 34.31052061344573" Properties=species:S:1:pos:R:3:initial_magmoms:R:1 pbc="T T T"
Si       1.35435874      -1.35716877       1.35626133       0.00000000
Si       1.35585742       1.35667797      -1.35694754       0.00000000
Si      -1.35616749       1.35320815       1.36065308       0.00000000
Si      -1.35935992      -1.35788553      -1.35667305       0.00000000
Si       2.71193476      -2.71391400       0.00051466       0.00000000
Si       2.71328683      -0.00115659      -2.71403232       0.00000000
Si       2.71340086       2.71513805       0.00068621       0.00000000
Si      -0.00280025       2.71485460      -2.71372352       0.00000000
Si      -0.00191408      -2.71533123      -2.71399801       0.00000000
Si      -2.71686153      -0.00021177      -2.71396370       0.00000000
