10
Lattice="16.28999089631971 0.0 0.0 0.0 16.28999089631971 0.0 0.0 0.0 34.31052061344573" Properties=species:S:1:pos:R:3:initial_magmoms:R:1 pbc="T T T"
Si       1.37337732       1.34418564       1.34806111       0.00000000
Si      -1.35435874       1.35716877      -1.35626133       0.00000000
Si       1.35757602      -1.35674523      -1.35574667       0.00000000
Si      -1.34971121      -1.36604682       1.36140791       0.00000000
Si       0.06957459       2.68125255       2.69927879       0.00000000
Si      -2.71052623       2.71037692       0.00439175       0.00000000
Si      -2.71371866      -0.00071676      -2.71293438       0.00000000
Si       0.00149868       2.71384674      -2.71320887       0.00000000
Si      -2.71066319      -2.71813311      -0.00024017       0.00000000
Si       0.00070047      -2.71573848      -2.71317455       0.00000000
