10
Lattice="16.28999089631971 0.0 0.0 0.0 16.28999089631971 0.0 0.0 0.0 34.31052061344573" Properties=species:S:1:pos:R:3:initial_magmoms:R:1 pbc="T T T"
Si       2.37609198      -0.13711293       0.09504020       0.00000000
Si      -1.30880865      -1.82319309       1.01295007       0.00000000
Si      -0.09257607       2.04685479       1.39695363       0.00000000
Si       0.77880861      -0.09695808      -2.55839971       0.00000000
Si      -0.86442885       1.67234769      -2.85751900       0.00000000
Si       0.33805008       1.14442137       3.54132805       0.00000000
Si      -3.50369297      -1.05099822       1.46838817       0.00000000
Si       0.54012753       3.89969146      -0.23667410       0.00000000
Si      -2.37565704       2.58931179       1.80631268       0.00000000
Si       3.17223315      -1.43757621       1.97151793       0.00000000
