10
Lattice="16.28999089631971 0.0 0.0 0.0 16.28999089631971 0.0 0.0 0.0 34.31052061344573" Properties=species:S:1:pos:R:3:initial_magmoms:R:1 pbc="T T T"
Si      -1.11577703       1.33934751      -1.50914909       0.00000000
Si      -0.11468160       0.69737490       2.20551581       0.00000000
Si      -0.52880761      -2.22705477       0.51565310       0.00000000
Si       2.18212695       0.19153782      -0.88184949       0.00000000
Si       2.22576786       0.21911679       2.58142208       0.00000000
Si      -0.79280824      -0.06981894      -3.38651890       0.00000000
Si       0.25519914       3.33974260      -1.34559075       0.00000000
Si      -2.63778173      -2.14910712       1.42498534       0.00000000
Si       3.21395184      -1.83011634      -0.39014515       0.00000000
Si       3.33317835       1.47821976       0.81696826       0.00000000
