10
Lattice="16.28999089631971 0.0 0.0 0.0 16.28999089631971 0.0 0.0 0.0 34.31052061344573" Properties=species:S:1:pos:R:3:initial_magmoms:R:1 pbc="T T T"
Si       0.76332171       0.16509915      -2.14125217       0.00000000
Si      -1.52756447      -1.77246603       0.10986235       0.00000000
Si      -0.81732047       2.17216303       0.39916882       0.00000000
Si       1.81516701      -0.09873369       1.50287026       0.00000000
Si       1.00956135       2.15200415       1.87647773       0.00000000
Si       1.44779493      -2.06860194      -2.27540638       0.00000000
Si       0.68613806      -1.20539484       3.23366544       0.00000000
Si      -0.36577796      -3.32878005      -1.32243114       0.00000000
Si      -0.79878245       1.65680281      -3.11958290       0.00000000
Si      -1.30427744      -2.53550592       2.37648523       0.00000000
