10
Lattice="10.86 0.0 0.0 0.0 10.86 0.0 0.0 0.0 10.86" Properties=species:S:1:pos:R:3:initial_magmoms:R:1 pbc="T T T"
Si       1.36316892       1.44225144       1.16254128       0.00000000
Si       1.36316892      -1.27274856      -1.55245872       0.00000000
Si      -1.35183108       1.44225144      -1.55245872       0.00000000
Si      -0.06584418      -2.47058484       2.12475900       0.00000000
Si       2.72066892       0.08475144       2.52004128       0.00000000
Si       0.00566892       2.79975144       2.52004128       0.00000000
Si       2.72066892      -2.63024856      -0.19495872       0.00000000
Si      -2.83878228       0.16854720      -2.52868584       0.00000000
Si      -2.83923840       0.11884098       2.65533516       0.00000000
Si      -2.70933108       2.79975144      -0.19495872       0.00000000
