10
Lattice="10.86 0.0 0.0 0.0 10.86 0.0 0.0 0.0 10.86" Properties=species:S:1:pos:R:3:initial_magmoms:R:1 pbc="T T T"
Si       0.00943734      -2.02906068       0.20298426       0.00000000
Si       2.31894666       0.29200368       0.03751044       0.00000000
Si       0.00943734       0.68593932      -2.51201574       0.00000000
Si      -0.83473218      -0.62333142       2.46297198       0.00000000
Si      -1.12781100       2.16684150      -1.27591968       0.00000000
Si      -2.70556266       0.68593932       0.20298426       0.00000000
Si      -0.35201604       3.41838048       0.43286874       0.00000000
Si      -1.34806266      -3.38656068      -1.15451574       0.00000000
Si       1.36693734      -3.38656068       1.56048426       0.00000000
Si      -1.34806266      -0.67156068      -3.86951574       0.00000000
