10
Lattice="16.28999089631971 0.0 0.0 0.0 16.28999089631971 0.0 0.0 0.0 34.53561885213415" Properties=species:S:1:pos:R:3:initial_magmoms:R:1 pbc="T T T"
Si      -1.35720557      -1.35490772       1.37782346       0.00000000
Si       1.36748493       1.35949824       1.37537143       0.00000000
Si       1.26450933      -1.56726742      -1.28896326       0.00000000
Si      -1.46255300       1.36515087      -1.35021912       0.00000000
Si      -2.68919000      -2.70041710      -0.00877896       0.00000000
Si      -2.70473066       2.70607851       0.05517759       0.00000000
Si       2.71394954       2.70215262      -0.01254334       0.00000000
Si      -2.70886832       0.00092853       2.73718071       0.00000000
Si       2.72328371      -2.72504000       0.04941359       0.00000000
Si       0.00715833      -2.71321372       2.73617918       0.00000000
