10
Lattice="16.28999089631971 0.0 0.0 0.0 16.28999089631971 0.0 0.0 0.0 34.53561885213415" Properties=species:S:1:pos:R:3:initial_magmoms:R:1 pbc="T T T"
Si       1.78457113      -1.50060222       0.72935814       0.00000000
Si       0.72788444       2.15792883      -0.95922735       0.00000000
Si      -0.91688821      -1.67438394      -1.57782970       0.00000000
Si      -1.93010992      -0.22089240       1.99687965       0.00000000
Si       0.40462405       2.10134551       2.27368969       0.00000000
Si      -0.98480122      -0.50466420      -3.64033255       0.00000000
Si       0.52973614      -3.11259546       2.17330150       0.00000000
Si       2.13531112       3.07691126       0.96544898       0.00000000
Si       3.20717683      -0.28077444       2.15890705       0.00000000
Si      -2.79999592      -2.72552877      -0.59346041       0.00000000
