10
Lattice="16.28999089631971 0.0 0.0 0.0 16.28999089631971 0.0 0.0 0.0 34.53561885213415" Properties=species:S:1:pos:R:3:initial_magmoms:R:1 pbc="T T T"
Si       1.50550551      -1.67243633      -0.63276196       0.00000000
Si      -2.33872272       0.37980624      -0.00131235       0.00000000
Si       0.60354450       1.61881875      -1.64852415       0.00000000
Si       0.75507408      -0.10764758       2.26647033       0.00000000
Si       0.95534334       3.38799420      -0.10547184       0.00000000
Si      -0.55311066       3.15895680       1.71787171       0.00000000
Si       3.56475699      -0.82462328       0.11793920       0.00000000
Si      -0.30437865      -1.96604729       3.24127325       0.00000000
Si       1.83172905      -1.46253968      -3.02449305       0.00000000
Si       3.10453191      -0.27568870       2.31081408       0.00000000
