10
Lattice="16.28999089631971 0.0 0.0 0.0 16.28999089631971 0.0 0.0 0.0 34.53561885213415" Properties=species:S:1:pos:R:3:initial_magmoms:R:1 pbc="T T T"
Si      -0.62258751       1.38882024      -1.76418400       0.00000000
Si       0.68559723      -1.87778414      -1.21558539       0.00000000
Si       2.04358050       0.53369298       1.01427716       0.00000000
Si      -1.86272892      -0.65282175       1.29118390       0.00000000
Si       3.52584018       0.18844272      -0.80861743       0.00000000
Si      -2.37438153      -2.75954948       0.39332638       0.00000000
Si      -1.17418320       3.41330886      -0.73284624       0.00000000
Si      -0.37385550      -3.73618385      -0.24078247       0.00000000
Si       2.13180714      -0.87767914       2.98021836       0.00000000
Si      -0.82306854       2.17399824       3.03323056       0.00000000
