10
Lattice="16.28999089631971 0.0 0.0 0.0 16.28999089631971 0.0 0.0 0.0 34.53561885213415" Properties=species:S:1:pos:R:3:initial_magmoms:R:1 pbc="T T T"
Si      -1.74865005       1.20745390      -0.87737789       0.00000000
Si      -0.55803024      -2.27274889      -0.48867928       0.00000000
Si       1.95325245       0.35569215      -1.40632572       0.00000000
Si      -0.35139159       0.92961166       2.23735678       0.00000000
Si       0.01383021      -3.36996184       1.55545061       0.00000000
Si      -2.04128361       0.58054954      -3.09536018       0.00000000
Si      -2.14408980      -0.53474043       3.08617370       0.00000000
Si      -1.00162323       3.40736953      -1.35331352       0.00000000
Si       2.64847707      -1.83332614      -2.03791347       0.00000000
Si       1.77033204       0.61840750       3.34805744       0.00000000
