10
Lattice="16.28999089631971 0.0 0.0 0.0 16.28999089631971 0.0 0.0 0.0 34.53561885213415" Properties=species:S:1:pos:R:3:initial_magmoms:R:1 pbc="T T T"
Si      -1.35778779      -1.35651717      -1.35915004       0.00000000
Si       1.35747828       1.35878148      -1.35904643       0.00000000
Si       1.35997065      -1.35799956       1.35763047       0.00000000
Si      -1.35736425       1.36184400       1.35921911       0.00000000
Si       2.69488728       0.01374876       2.73460090       0.00000000
Si      -2.71576617      -2.71476108      -0.00075978       0.00000000
Si       0.00001629      -2.71406061      -2.71664237       0.00000000
Si       2.71479366       2.71598283      -0.00082886       0.00000000
Si       2.71595025      -2.71547784      -0.00224482       0.00000000
Si       2.71484253       0.00110772      -2.71702226       0.00000000
