10
Lattice="16.28999089631971 0.0 0.0 0.0 16.28999089631971 0.0 0.0 0.0 34.53561885213415" Properties=species:S:1:pos:R:3:initial_magmoms:R:1 pbc="T T T"
Si      -1.39141035       0.18301815       1.88968651       0.00000000
Si       1.19114109      -2.15712180       0.19298515       0.00000000
Si      -1.87450659       0.17523153      -1.61899618       0.00000000
Si       1.42438131       2.06262351      -1.57161329       0.00000000
Si      -0.19756512       1.18192095      -3.04055212       0.00000000
Si       0.64992213       2.53605978       2.03335477       0.00000000
Si      -0.10792125      -0.82678266       3.57077777       0.00000000
Si       3.17905866      -1.47683511       1.26141418       0.00000000
Si      -1.56638124       2.41761519       2.54976616       0.00000000
Si       0.73433691       3.79205136      -0.02382959       0.00000000
