10
Lattice="16.28999089631971 0.0 0.0 0.0 16.28999089631971 0.0 0.0 0.0 34.53561885213415" Properties=species:S:1:pos:R:3:initial_magmoms:R:1 pbc="T T T"
Si      -1.35694071      -1.35702216       1.35745779       0.00000000
Si       1.35845568       1.35765747       1.35801036       0.00000000
Si       1.35873261      -1.35630540      -1.35952993       0.00000000
Si      -1.35778779       1.35943308      -1.35984075       0.00000000
Si       2.71454931       2.71376739       0.00172678       0.00000000
Si      -2.71480995      -2.71469592       0.00096700       0.00000000
Si       0.00050499      -2.71430496       2.71564083       0.00000000
Si       2.71441899      -2.71555929       0.00072525       0.00000000
Si      -2.71453302       0.00040725       2.71584805       0.00000000
Si       0.00029322       2.71564074       2.71522641       0.00000000
