10
Lattice="16.28999089631971 0.0 0.0 0.0 16.28999089631971 0.0 0.0 0.0 34.53561885213415" Properties=species:S:1:pos:R:3:initial_magmoms:R:1 pbc="T T T"
Si       1.34358291       1.36218609      -1.38740019       0.00000000
Si      -1.37323071      -1.34819298      -1.38643319       0.00000000
Si      -1.32747210       1.45556037       1.37665961       0.00000000
Si       1.38500838      -1.54535085       1.51055428       0.00000000
Si      -2.36286450      -0.05605389       3.00377166       0.00000000
Si       2.69982315       2.71806795       0.00172678       0.00000000
Si       2.70723510      -2.71686249      -0.02745583       0.00000000
Si      -2.73833271      -2.69861769      -0.02607441       0.00000000
Si       2.70140328       0.00666261      -2.74907133       0.00000000
Si      -0.01438407      -2.70832653      -2.74765537       0.00000000
