10
Lattice="16.28999089631971 0.0 0.0 0.0 16.28999089631971 0.0 0.0 0.0 34.53561885213415" Properties=species:S:1:pos:R:3:initial_magmoms:R:1 pbc="T T T"
Si       0.84175317      -2.20892532      -0.26889448       0.00000000
Si       0.37273149       1.30753412      -1.96860045       0.00000000
Si       1.14662052       0.79160701       1.95454444       0.00000000
Si      -2.37949333       0.08208955       0.33530651       0.00000000
Si      -1.10260494      -1.47558210       3.04148458       0.00000000
Si       2.16878544       2.71980055      -0.93674465       0.00000000
Si      -3.08925515       0.24419948      -1.87614854       0.00000000
Si      -1.76935464       2.33794666      -2.18254872       0.00000000
Si       0.40685904      -3.01599708       2.08063406       0.00000000
Si       0.75834837       3.75418297       0.60133453       0.00000000
