10
Lattice="16.28999089631971 0.0 0.0 0.0 16.28999089631971 0.0 0.0 0.0 34.53561885213415" Properties=species:S:1:pos:R:3:initial_magmoms:R:1 pbc="T T T"
Si       0.20543319       2.01435624      -1.15462999       0.00000000
Si      -0.05108544      -1.78533513      -1.54329406       0.00000000
Si       1.96794603      -0.43639281       1.30258066       0.00000000
Si      -1.95100443      -0.46395549       1.36453760       0.00000000
Si       0.99023652      -2.36380932       2.19812430       0.00000000
Si       0.87555492      -3.34940319       0.04724475       0.00000000
Si      -0.77988375      -1.22492655       3.21640759       0.00000000
Si       2.26204569       1.84103064      -2.34894143       0.00000000
Si      -2.32464816      -1.78913070      -2.32939426       0.00000000
Si       0.91479753       3.60204480       0.52221338       0.00000000
