10
Lattice="16.28999089631971 0.0 0.0 0.0 16.28999089631971 0.0 0.0 0.0 34.53561885213415" Properties=species:S:1:pos:R:3:initial_magmoms:R:1 pbc="T T T"
Si      -1.34796492      -1.36234899       1.37432845       0.00000000
Si       1.37404521       1.34467434       1.37495009       0.00000000
Si       1.32796080      -1.40107032      -1.38809436       0.00000000
Si      -1.35822762       1.47328389      -1.40506517       0.00000000
Si       2.38000158       0.24412194      -2.76644073       0.00000000
Si      -2.70200601       2.69763125       0.04809433       0.00000000
Si      -2.69558775      -2.73328281      -0.00207559       0.00000000
Si       2.73986397       2.69667219      -0.00245894       0.00000000
Si      -2.70673011      -0.00599472       2.73548156       0.00000000
Si       0.00987174       2.70845730       2.73441095       0.00000000
