10
Lattice="16.28999089631971 0.0 0.0 0.0 16.28999089631971 0.0 0.0 0.0 34.53561885213415" Properties=species:S:1:pos:R:3:initial_magmoms:R:1 pbc="T T T"
Si       1.35725022      -1.35668007       1.35690522       0.00000000
Si      -1.35708732       1.35834789       1.35707790       0.00000000
Si       1.35700587       1.35791856      -1.35807943       0.00000000
Si      -1.35959598      -1.35653346      -1.35700883       0.00000000
Si      -2.71462750      -0.00179190      -2.71301613       0.00000000
Si       2.71383255      -0.00026064       2.71432848       0.00000000
Si      -2.71451021       0.00055386       2.71401766       0.00000000
Si      -0.00092853      -2.71484253       2.71384498       0.00000000
Si      -2.71479692      -2.71428867      -0.00034536       0.00000000
Si      -2.71477574       2.71522439       0.00006907       0.00000000
