10
Lattice="16.28999089631971 0.0 0.0 0.0 16.28999089631971 0.0 0.0 0.0 34.53561885213415" Properties=species:S:1:pos:R:3:initial_magmoms:R:1 pbc="T T T"
Si       1.35658233       1.35641943       1.35742326       0.00000000
Si      -1.35725022       1.35668007      -1.35690522       0.00000000
Si      -1.35817875      -1.35816246       1.35693976       0.00000000
Si       1.35816246      -1.35798327      -1.35721604       0.00000000
Si       2.71425609      -0.00187335      -2.71349963       0.00000000
Si      -2.71433754       2.71502796       0.00017268       0.00000000
Si      -0.00024435       2.71459863      -2.71498466       0.00000000
Si       2.71463076       2.71506617      -0.00017268       0.00000000
Si      -2.71482624      -2.71523349       0.00062164       0.00000000
Si       2.71531494      -2.71523349       0.00037989       0.00000000
