10
Lattice="16.28999089631971 0.0 0.0 0.0 16.28999089631971 0.0 0.0 0.0 34.53561885213415" Properties=species:S:1:pos:R:3:initial_magmoms:R:1 pbc="T T T"
Si      -2.00052603       0.97663437       0.63410885       0.00000000
Si       1.05945273       1.85839971      -0.97480292       0.00000000
Si      -0.70936434      -1.58768856      -1.67684337       0.00000000
Si       1.17336870      -0.41567193       2.13181587       0.00000000
Si       1.34724816      -1.76101416      -2.87115481       0.00000000
Si      -1.48887342       3.08336210       1.53196637       0.00000000
Si      -0.91479753      -3.60204480      -0.52221338       0.00000000
Si       0.37385550       3.73618385       0.24078247       0.00000000
Si       0.30437865       1.96604729      -3.24127325       0.00000000
Si      -3.15672507       1.81364456      -1.23230064       0.00000000
