10
Lattice="16.28999089631971 0.0 0.0 0.0 16.28999089631971 0.0 0.0 0.0 34.53561885213415" Properties=species:S:1:pos:R:3:initial_magmoms:R:1 pbc="T T T"
Si       1.97249094       1.28212074       0.30857593       0.00000000
Si      -1.60901217      -0.33664914       1.72139435       0.00000000
Si      -1.35798327       0.66648906      -1.86267964       0.00000000
Si       1.33130025      -2.00332791      -0.04475819       0.00000000
Si       2.54435139       0.18490779       2.35270581       0.00000000
Si      -2.94596505       1.57532445       1.33981008       0.00000000
Si       3.15147969       0.63638514      -1.69825547       0.00000000
Si       2.08064025      -2.15461314       2.18610590       0.00000000
Si      -0.02241504       2.02869144      -3.19596249       0.00000000
Si      -2.88344403       2.25616500      -0.96647983       0.00000000
