10
Lattice="16.28999089631971 0.0 0.0 0.0 16.28999089631971 0.0 0.0 0.0 34.53561885213415" Properties=species:S:1:pos:R:3:initial_magmoms:R:1 pbc="T T T"
Si      -1.42465824       1.24291071      -1.28878713       0.00000000
Si      -1.37689596      -1.32135846       1.35129318       0.00000000
Si       1.34343630       1.39038408       1.35419418       0.00000000
Si       1.34711784      -1.36546690      -1.53617972       0.00000000
Si       0.25568784       2.17085427      -2.55868327       0.00000000
Si       2.25316764       0.45597339      -2.68703666       0.00000000
Si      -2.36750715      -0.52460316      -2.59982799       0.00000000
Si       2.71616202      -2.66718550      -0.03472213       0.00000000
Si      -0.02042766      -2.68081420       2.70947622       0.00000000
Si       2.69648370       0.03416013       2.71123754       0.00000000
