10
Lattice="16.28999089631971 0.0 0.0 0.0 16.28999089631971 0.0 0.0 0.0 34.53561885213415" Properties=species:S:1:pos:R:3:initial_magmoms:R:1 pbc="T T T"
Si       2.11458861       0.85973733       0.75425834       0.00000000
Si      -1.48574574       0.70480314       1.78027761       0.00000000
Si      -0.25756119      -2.37655529       0.40430872       0.00000000
Si      -0.34498962       0.35013726      -2.63582898       0.00000000
Si       1.42135137       2.95414263      -0.09870285       0.00000000
Si       3.49071894      -1.19850091       0.42585895       0.00000000
Si      -3.40584804       1.39398417       0.53620032       0.00000000
Si       2.20356459       0.45729288       3.04649225       0.00000000
Si       2.13260535      -3.11024060      -0.38085902       0.00000000
Si      -0.58378473      -2.58645194       2.79603980       0.00000000
