10
Lattice="16.28999089631971 0.0 0.0 0.0 16.28999089631971 0.0 0.0 0.0 34.53561885213415" Properties=species:S:1:pos:R:3:initial_magmoms:R:1 pbc="T T T"
Si       2.19963218      -0.31698711       0.84180618       0.00000000
Si      -0.81475805       2.09644155       0.79055529       0.00000000
Si       0.23021842      -0.38229372      -2.38164668       0.00000000
Si      -1.99280198      -1.19342169       0.70601205       0.00000000
Si      -3.02579975      -1.13028165      -1.45015145       0.00000000
Si      -1.93181222       0.33311421      -2.95752844       0.00000000
Si      -0.74979353       2.08404486       3.22928938       0.00000000
Si       3.82916975       0.65752956      -0.57643434       0.00000000
Si      -2.89818389       2.76941403      -0.31872940       0.00000000
Si       3.19091126      -2.41485566       0.49455034       0.00000000
