10
Lattice="16.28999089631971 0.0 0.0 0.0 16.28999089631971 0.0 0.0 0.0 34.53561885213415" Properties=species:S:1:pos:R:3:initial_magmoms:R:1 pbc="T T T"
Si      -2.04358050      -0.53369298      -1.01427716       0.00000000
Si       0.80917317       2.20195188       0.22092448       0.00000000
Si       1.48225968      -0.34525026      -1.82289459       0.00000000
Si       0.08822664      -1.41137212       1.96594120       0.00000000
Si      -0.72617562       2.79130779       1.94238790       0.00000000
Si       0.99147456      -2.57951824      -2.18551879       0.00000000
Si       3.15569880       1.53036405       0.55201764       0.00000000
Si      -1.35798327      -2.41147712      -2.22986255       0.00000000
Si       2.21602644      -0.91916325       2.76892932       0.00000000
Si       3.47667696      -1.22574105       0.77394365       0.00000000
