10
Lattice="16.28999089631971 0.0 0.0 0.0 16.28999089631971 0.0 0.0 0.0 34.53561885213415" Properties=species:S:1:pos:R:3:initial_magmoms:R:1 pbc="T T T"
Si       2.04341760       0.82409481       0.96022888       0.00000000
Si      -0.69154308      -1.74047247      -1.51687430       0.00000000
Si      -1.49683923       1.86005736      -0.34684141       0.00000000
Si       1.75531266       0.77221116      -1.60262629       0.00000000
Si      -0.70916886      -0.10161702       2.50162349       0.00000000
Si      -2.09468223      -0.46463967      -2.97386380       0.00000000
Si      -2.47550985      -2.70562239      -0.03550264       0.00000000
Si       2.39225166      -1.32520779       2.48628966       0.00000000
Si       2.44004652       2.80313433      -0.47607377       0.00000000
Si       0.62089335       2.23405947      -3.00266652       0.00000000
