10
Lattice="16.28999089631971 0.0 0.0 0.0 16.28999089631971 0.0 0.0 0.0 34.53561885213415" Properties=species:S:1:pos:R:3:initial_magmoms:R:1 pbc="T T T"
Si      -1.34024346      -1.75304835      -0.77162976       0.00000000
Si      -1.46663757       1.81648161      -0.37609310       0.00000000
Si       0.14594211       0.38626848       2.33001590       0.00000000
Si       2.22356871      -0.48539313      -0.69502972       0.00000000
Si       2.64186333      -2.03582646       1.20152939       0.00000000
Si      -2.06869968       0.16521318       3.08890201       0.00000000
Si       3.26314764       1.64915073      -0.75684851       0.00000000
Si      -0.42932295      -2.28379284      -2.94267812       0.00000000
Si      -2.99534004       1.72928124       1.49836320       0.00000000
Si       1.66324158      -1.18495089       3.23032545       0.00000000
