10
Lattice="16.28999089631971 0.0 0.0 0.0 16.28999089631971 0.0 0.0 0.0 34.53561885213415" Properties=species:S:1:pos:R:3:initial_magmoms:R:1 pbc="T T T"
Si       0.95329080      -1.72304217       1.36856933       0.00000000
Si      -1.00313820      -1.27387800      -1.78625228       0.00000000
Si       2.31678009       0.16303032      -0.72745868       0.00000000
Si      -1.74952971       1.27782018       1.17604209       0.00000000
Si       0.45356247      -2.83876056      -0.83123827       0.00000000
Si       2.00834523       0.06871122       2.61037072       0.00000000
Si       1.95693399       1.89436410      -2.16849272       0.00000000
Si       2.47565646      -2.04977070      -1.67853562       0.00000000
Si      -0.72705528      -2.65098573       2.63846547       0.00000000
Si      -0.65260998       2.87362116       2.52187315       0.00000000
