10
Lattice="16.28999089631971 0.0 0.0 0.0 16.28999089631971 0.0 0.0 0.0 34.53561885213415" Properties=species:S:1:pos:R:3:initial_magmoms:R:1 pbc="T T T"
Si       1.09691973       1.59580098       1.34583106       0.00000000
Si      -1.66651587      -1.19351943       1.23035425       0.00000000
Si      -1.13806827       1.34895861      -1.61930700       0.00000000
Si       1.74952971      -1.27782018      -1.17604209       0.00000000
Si      -0.29602188      -2.42696565       2.73387707       0.00000000
Si       2.43919944       0.28574289       2.74261459       0.00000000
Si      -2.68688889       2.67936291      -0.13658845       0.00000000
Si       2.28447702       3.07921725      -0.05263231       0.00000000
Si      -2.78073558      -2.63839356      -0.37118904       0.00000000
Si       0.74639151      -2.55169818      -2.96229436       0.00000000
