10
Lattice="16.28999089631971 0.0 0.0 0.0 16.28999089631971 0.0 0.0 0.0 34.53561885213415" Properties=species:S:1:pos:R:3:initial_magmoms:R:1 pbc="T T T"
Si      -1.47401109      -1.83472315       0.14425536       0.00000000
Si       2.21976988      -0.80510067      -0.02793933       0.00000000
Si      -0.23094056       0.93208122       2.17035764       0.00000000
Si      -0.28536237       1.91475918      -1.41419985       0.00000000
Si      -2.19503907       2.77736355      -0.24579014       0.00000000
Si       1.30390699       3.29540184      -0.33264727       0.00000000
Si      -2.26695942       2.03367618       1.95537330       0.00000000
Si      -0.24177276      -3.59384183      -0.82381311       0.00000000
Si       1.19159884       2.86684452       2.02036937       0.00000000
Si       1.95051247      -3.19367798      -0.05304674       0.00000000
