10
Lattice="16.28999089631971 0.0 0.0 0.0 16.28999089631971 0.0 0.0 0.0 34.53561885213415" Properties=species:S:1:pos:R:3:initial_magmoms:R:1 pbc="T T T"
Si       1.35542574       1.35518139       1.35763047       0.00000000
Si      -1.35567009      -1.35889551       1.35756140       0.00000000
Si       1.35804843      -1.35751086      -1.35662894       0.00000000
Si      -1.35772263       1.35801585      -1.35700883       0.00000000
Si      -0.00164529      -2.71585251       2.70994245       0.00000000
Si       2.71433754      -0.00131949      -2.71391405       0.00000000
Si      -0.00003258       2.71440270      -2.71415580       0.00000000
Si      -2.71430496      -2.71477737       0.00034536       0.00000000
Si      -2.71454931       2.71524978       0.00072525       0.00000000
Si      -2.71573848      -0.00071676      -2.71415580       0.00000000
