10
Lattice="16.28999089631971 0.0 0.0 0.0 16.28999089631971 0.0 0.0 0.0 34.53561885213415" Properties=species:S:1:pos:R:3:initial_magmoms:R:1 pbc="T T T"
Si       1.39949019      -0.70092612      -1.70429921       0.00000000
Si       1.93168449       0.21436011       1.46092657       0.00000000
Si      -1.05702552      -2.30628933       0.52166081       0.00000000
Si      -1.49569893       1.88327061      -1.02926562       0.00000000
Si      -0.21887244      -1.74272049      -2.95977326       0.00000000
Si       2.43120105       1.07699706      -2.78333069       0.00000000
Si       1.23704631      -0.42285582       3.68001399       0.00000000
Si      -3.06522414       2.31024780       0.85444622       0.00000000
Si       2.78834301       2.47792077       1.25188235       0.00000000
Si      -1.02820851      -3.44945637      -1.61650961       0.00000000
