10
Lattice="16.28999089631971 0.0 0.0 0.0 16.28999089631971 0.0 0.0 0.0 34.53561885213415" Properties=species:S:1:pos:R:3:initial_magmoms:R:1 pbc="T T T"
Si       0.80410698       1.70364078      -1.40297576       0.00000000
Si      -0.77543658      -1.52546076      -1.68627160       0.00000000
Si      -1.33649676       1.20404277       1.61533540       0.00000000
Si       1.72198332      -1.03456161       1.36329432       0.00000000
Si      -0.20582415      -2.58668910       2.30142039       0.00000000
Si       1.27338930      -1.61753184      -2.89999207       0.00000000
Si       2.33373798       0.53331831      -2.81613954       0.00000000
Si      -3.54651219       1.09051776       0.79204033       0.00000000
Si      -2.27527317      -2.82686886       1.14274973       0.00000000
Si       1.32248736       3.57627469       0.00224482       0.00000000
