10
Lattice="16.28999089631971 0.0 0.0 0.0 16.28999089631971 0.0 0.0 0.0 34.53561885213415" Properties=species:S:1:pos:R:3:initial_magmoms:R:1 pbc="T T T"
Si       0.44854515      -0.24635693      -2.26636672       0.00000000
Si      -0.85695174       2.05587131       0.72407419       0.00000000
Si       2.24637864      -0.75629746       0.43490729       0.00000000
Si      -1.88900469      -0.87318147       1.26396982       0.00000000
Si       0.23714982       2.00687098       2.82380645       0.00000000
Si      -0.50797107      -1.51109202       3.23408983       0.00000000
Si       2.26914717      -2.10347787      -1.99318982       0.00000000
Si       3.56627915       1.33744973       0.12850711       0.00000000
Si      -3.26513502       1.18505677       1.59236920       0.00000000
Si      -1.35294966      -1.30816749      -3.38863682       0.00000000
