10
Lattice="16.28999089631971 0.0 0.0 0.0 16.28999089631971 0.0 0.0 0.0 34.53561885213415" Properties=species:S:1:pos:R:3:initial_magmoms:R:1 pbc="T T T"
Si      -0.80177751       1.73210593      -1.36899270       0.00000000
Si      -0.51838038      -1.87263391      -1.40522058       0.00000000
Si       2.39065524       0.34593118       0.01782039       0.00000000
Si      -1.55331666      -0.27629536       2.05445604       0.00000000
Si       2.56867236       0.94445510      -2.33208804       0.00000000
Si       0.45887301       1.42552813      -3.36397837       0.00000000
Si      -2.23435269      -0.94912123      -2.80356857       0.00000000
Si      -1.32248736      -3.57627469      -0.00224482       0.00000000
Si      -0.34397964       3.80556229      -0.43214444       0.00000000
Si      -2.92957731       1.23989706      -2.17198082       0.00000000
