10
Lattice="16.28999089631971 0.0 0.0 0.0 16.28999089631971 0.0 0.0 0.0 34.53561885213415" Properties=species:S:1:pos:R:3:initial_magmoms:R:1 pbc="T T T"
Si       0.29243500       1.63097109      -1.78300593       0.00000000
Si      -1.49253867       1.36467846       1.42038173       0.00000000
Si      -1.12865265      -1.73435720      -1.45919978       0.00000000
Si       1.83942186      -1.10252186       1.37427665       0.00000000
Si      -1.74358386       2.73256605      -1.99799027       0.00000000
Si       3.50888948      -1.48458589      -0.36252059       0.00000000
Si       0.12673620      -3.76511489      -1.30682855       0.00000000
Si       0.52337556       0.69888987      -3.95336357       0.00000000
Si      -3.37564638       2.21905638       0.31631191       0.00000000
Si      -0.95063553      -1.13583328      -3.80910821       0.00000000
