10
Lattice="16.28999089631971 0.0 0.0 0.0 16.28999089631971 0.0 0.0 0.0 34.53561885213415" Properties=species:S:1:pos:R:3:initial_magmoms:R:1 pbc="T T T"
Si       1.35735285       1.35713619      -1.35697429       0.00000000
Si      -1.35726414       1.35703845       1.35735419       0.00000000
Si       1.35740172      -1.35777150       1.35759594       0.00000000
Si      -1.35889781      -1.35795069      -1.35725058       0.00000000
Si      -2.71445387       0.00043983      -2.71401766       0.00000000
Si      -0.00159316       2.71430496       2.71529548       0.00000000
Si      -2.71508918       2.71453302       0.00017268       0.00000000
Si      -2.71507289       0.00009774       2.71470837       0.00000000
Si       2.71522209       2.71480995      -0.00048350       0.00000000
Si      -2.71538240      -2.71500543       0.00079432       0.00000000
