10
Lattice="16.28999089631971 0.0 0.0 0.0 16.28999089631971 0.0 0.0 0.0 34.53561885213415" Properties=species:S:1:pos:R:3:initial_magmoms:R:1 pbc="T T T"
Si      -1.38987909       1.22329755      -1.34611629       0.00000000
Si       1.24217766      -1.34092764      -1.40539671       0.00000000
Si      -1.35718506      -1.34892603       1.32495976       0.00000000
Si       1.35322659       1.36806678       1.32423451       0.00000000
Si       0.33852249       2.06156466      -2.78455467       0.00000000
Si       1.99879929       0.27829836      -2.94255521       0.00000000
Si      -0.44745372      -2.28333672      -2.71627108       0.00000000
Si      -2.44493352      -0.56845584      -2.58791768       0.00000000
Si      -0.00413766      -2.70514998       2.68200312       0.00000000
Si       2.70878265       0.00967626       2.68100159       0.00000000
