10
Lattice="16.28999089631971 0.0 0.0 0.0 16.28999089631971 0.0 0.0 0.0 34.53561885213415" Properties=species:S:1:pos:R:3:initial_magmoms:R:1 pbc="T T T"
Si       1.35702216      -1.35301482       1.35766501       0.00000000
Si      -1.35570267       1.35703845       1.35583462       0.00000000
Si       1.35780875       1.35694071      -1.35735419       0.00000000
Si      -1.35718506      -1.35759231      -1.35738872       0.00000000
Si      -2.70899442      -0.01097946       2.68825407       0.00000000
Si      -2.71469592      -2.71262709       0.00006907       0.00000000
Si       2.71347973       2.71420722       0.00058711       0.00000000
Si      -2.71454931      -0.00061902      -2.71439755       0.00000000
Si      -0.00001629       2.71443528      -2.71453569       0.00000000
Si      -0.00030951      -2.71510317      -2.71391405       0.00000000
