10
Lattice="16.28999089631971 0.0 0.0 0.0 16.28999089631971 0.0 0.0 0.0 34.53561885213415" Properties=species:S:1:pos:R:3:initial_magmoms:R:1 pbc="T T T"
Si      -1.50918705       1.80545328       0.04144277       0.00000000
Si       2.00181294       0.62477037      -1.07927323       0.00000000
Si      -0.68473386      -2.03092317      -1.12655252       0.00000000
Si      -0.39662892      -1.97903952       1.43630266       0.00000000
Si       2.60533856       0.87762375       1.29974874       0.00000000
Si      -1.81915317      -0.56907486      -2.52659275       0.00000000
Si       0.88782129       2.17396566      -2.48269796       0.00000000
Si      -3.12754968       0.76365891      -1.21403129       0.00000000
Si       0.92146014       0.96440058       3.27653413       0.00000000
Si      -2.44004652      -2.80313433       0.47607377       0.00000000
