10
Lattice="16.28999089631971 0.0 0.0 0.0 16.28999089631971 0.0 0.0 0.0 34.53561885213415" Properties=species:S:1:pos:R:3:initial_magmoms:R:1 pbc="T T T"
Si       0.11888442      -2.31987519      -0.43518358       0.00000000
Si      -0.84748725       0.11642463       2.20361546       0.00000000
Si       1.86980271       1.49226174       0.20338037       0.00000000
Si      -2.35072845       0.26244819      -1.35327898       0.00000000
Si      -0.97521714      -2.27087487      -2.53491584       0.00000000
Si       1.23593859      -0.55654785       3.31290016       0.00000000
Si      -0.00596214       2.82186783      -2.22074514       0.00000000
Si       3.27279851       0.62946189      -1.50154048       0.00000000
Si       2.31479990       1.40774922       2.48494277       0.00000000
Si      -3.22033752       0.25601364       1.88685459       0.00000000
