10
Lattice="16.28999089631971 0.0 0.0 0.0 16.28999089631971 0.0 0.0 0.0 34.53561885213415" Properties=species:S:1:pos:R:3:initial_magmoms:R:1 pbc="T T T"
Si      -1.35731538       1.35739683       1.35745779       0.00000000
Si       1.35848478       1.35705474      -1.35687069       0.00000000
Si       1.35782504      -1.35749457       1.35718151       0.00000000
Si      -1.35824391      -1.35886293      -1.35714697       0.00000000
Si      -2.71295289       0.00070047      -2.71353416       0.00000000
Si       0.00063531      -2.71409319      -2.71419034       0.00000000
Si       2.71349602      -0.00022806       2.71512280       0.00000000
Si       0.00001629      -2.71443528       2.71453569       0.00000000
Si      -0.00193851       2.71402803       2.71505373       0.00000000
Si      -2.71453302      -2.71505430       0.00013814       0.00000000
