10
Lattice="16.28999089631971 0.0 0.0 0.0 16.28999089631971 0.0 0.0 0.0 34.53561885213415" Properties=species:S:1:pos:R:3:initial_magmoms:R:1 pbc="T T T"
Si      -1.35628911      -1.35619137       1.35728512       0.00000000
Si      -1.35470898       1.35956340      -1.35638719       0.00000000
Si       1.35887922      -1.35523026      -1.35704337       0.00000000
Si       1.35824391       1.35886293       1.35714697       0.00000000
Si       0.00565263      -2.72329704      -2.68127787       0.00000000
Si      -2.70290196      -0.00514764      -2.71910821       0.00000000
Si       0.00107514      -2.71316466       2.71429394       0.00000000
Si      -2.71355562      -2.71440270      -0.00044896       0.00000000
Si       2.71443528      -2.71362078      -0.00027629       0.00000000
Si      -2.71433754       0.00131949       2.71391405       0.00000000
