10
Lattice="16.28999089631971 0.0 0.0 0.0 16.28999089631971 0.0 0.0 0.0 34.53561885213415" Properties=species:S:1:pos:R:3:initial_magmoms:R:1 pbc="T T T"
Si       1.36237851       1.33716465      -1.37362047       0.00000000
Si       1.11399165      -1.54919529       1.40342473       0.00000000
Si      -1.35368271      -1.37502261      -1.37631425       0.00000000
Si      -1.36529748       1.40941080       1.44510924       0.00000000
Si       1.83020009       0.90784170       2.52835407       0.00000000
Si      -0.88782129      -2.17396566       2.48269796       0.00000000
Si      -2.39700834      -0.36851238       2.52414072       0.00000000
Si       2.71125288       2.70096345       0.01526475       0.00000000
Si      -2.72886822       2.69239491      -0.00221028       0.00000000
Si       0.00006516       2.69640225      -2.73163084       0.00000000
