10
Lattice="16.28999089631971 0.0 0.0 0.0 16.28999089631971 0.0 0.0 0.0 34.53561885213415" Properties=species:S:1:pos:R:3:initial_magmoms:R:1 pbc="T T T"
Si      -1.61836263      -1.04179437      -1.25547405       0.00000000
Si      -1.39949019       0.70092612       1.70429921       0.00000000
Si       1.03171086       1.77792318      -1.07903148       0.00000000
Si       1.50918705      -1.80545328      -0.04144277       0.00000000
Si       0.53219430       0.91528623       3.16522577       0.00000000
Si       2.39700834       0.36851238      -2.52414072       0.00000000
Si      -0.30996612      -2.37452814      -2.56803552       0.00000000
Si      -2.42769870      -2.74853025       0.08778959       0.00000000
Si      -2.45651571      -1.60536321       2.22596002       0.00000000
Si       3.51099999      -1.18068291      -1.12071599       0.00000000
