10
Lattice="16.28999089631971 0.0 0.0 0.0 16.28999089631971 0.0 0.0 0.0 34.53561885213415" Properties=species:S:1:pos:R:3:initial_magmoms:R:1 pbc="T T T"
Si       1.00660797       0.87316029       2.15267540       0.00000000
Si      -1.89845289       1.75633893      -0.06986560       0.00000000
Si       1.68387842      -0.08677683      -1.97678539       0.00000000
Si       1.87576485      -1.32960609       2.42412551       0.00000000
Si       2.16665538      -2.33552988      -1.41088443       0.00000000
Si      -0.92146014      -0.96440058      -3.27653413       0.00000000
Si      -2.59309107       1.11912300       2.14922183       0.00000000
Si      -2.34476631      -2.55941964       0.86746616       0.00000000
Si       0.00596214      -2.82186783       2.22074514       0.00000000
Si      -1.31808906      -2.94344010      -1.84023148       0.00000000
