10
Lattice="16.28999089631971 0.0 0.0 0.0 16.28999089631971 0.0 0.0 0.0 34.53561885213415" Properties=species:S:1:pos:R:3:initial_magmoms:R:1 pbc="T T T"
Si      -2.09064231       0.33700752      -1.06438837       0.00000000
Si       0.31223043      -2.36793069      -0.30767800       0.00000000
Si       1.75140210       1.47878991      -0.74942335       0.00000000
Si       0.15335406      -0.51504093       2.39995057       0.00000000
Si       1.40236605      -2.41065936       1.79101819       0.00000000
Si      -1.76349024      -1.38779397      -2.65834621       0.00000000
Si       1.47658329       1.26941454       3.10047145       0.00000000
Si      -1.79290998      -3.07884258      -0.95408154       0.00000000
Si       3.00727151       1.73268585       1.28603809       0.00000000
Si      -3.73715406      -0.50122701       0.46143066       0.00000000
