10
Lattice="16.28999089631971 0.0 0.0 0.0 16.28999089631971 0.0 0.0 0.0 34.53561885213415" Properties=species:S:1:pos:R:3:initial_magmoms:R:1 pbc="T T T"
Si      -0.91315224      -2.07598131      -0.67672583       0.00000000
Si      -1.54043127       1.50410457      -1.02940377       0.00000000
Si       2.01810294       0.49283766      -1.22387394       0.00000000
Si      -0.18528246       0.06973749       2.41369575       0.00000000
Si      -2.54119113      -2.23822971       1.13249265       0.00000000
Si       2.97778498      -1.65985326       1.45975235       0.00000000
Si      -1.87240518       0.50665158      -3.16239385       0.00000000
Si      -1.58809581      -1.80291204      -2.92313095       0.00000000
Si      -0.48008259       3.65495472      -0.94555124       0.00000000
Si      -1.86639417      -1.34860023       3.17620811       0.00000000
