10
Lattice="16.28999089631971 0.0 0.0 0.0 16.28999089631971 0.0 0.0 0.0 34.53561885213415" Properties=species:S:1:pos:R:3:initial_magmoms:R:1 pbc="T T T"
Si       0.44499719      -0.08451252       2.28156240       0.00000000
Si       1.40299580      -0.86279985      -1.70492085       0.00000000
Si      -0.86915688       2.20276638      -0.27145012       0.00000000
Si      -1.86980271      -1.49226174      -0.20338037       0.00000000
Si      -1.87576485       1.32960609      -2.42412551       0.00000000
Si      -2.71728996      -1.37583711       2.00023509       0.00000000
Si       2.56571084       0.73787184       2.53626273       0.00000000
Si      -0.63386412      -2.04880959       3.10951979       0.00000000
Si      -2.73362883       2.45702070       1.28379328       0.00000000
Si       1.87051880      -3.15481914      -1.33407717       0.00000000
