10
Lattice="16.28999089631971 0.0 0.0 0.0 16.28999089631971 0.0 0.0 0.0 34.53561885213415" Properties=species:S:1:pos:R:3:initial_magmoms:R:1 pbc="T T T"
Si      -1.43503497       1.22360706       1.36035879       0.00000000
Si      -1.35552348      -1.34581464      -1.34778781       0.00000000
Si       1.35684297       1.36822968      -1.34195129       0.00000000
Si       1.17701766      -1.36805049       1.50440693       0.00000000
Si       0.36645984       2.28541762       2.48262888       0.00000000
Si       2.18706186       0.42829668       2.75580578       0.00000000
Si      -0.69344901      -2.18729088       2.88628142       0.00000000
Si      -2.46407427      -0.53467038       2.85633902       0.00000000
Si       2.70783198      -2.69907381       0.04327315       0.00000000
Si      -0.00335574      -2.70363501      -2.70362243       0.00000000
