10
Lattice="16.28999089631971 0.0 0.0 0.0 16.28999089631971 0.0 0.0 0.0 34.53561885213415" Properties=species:S:1:pos:R:3:initial_magmoms:R:1 pbc="T T T"
Si      -1.88310771      -1.05114483       0.98436929       0.00000000
Si      -0.06791301       1.16971974      -2.06250285       0.00000000
Si       0.89051633      -2.09057715      -0.77525601       0.00000000
Si       0.91688821       1.67438394       1.57782970       0.00000000
Si      -0.17524782      -2.61576675       2.36392990       0.00000000
Si       2.70145934       0.17378172       2.30718784       0.00000000
Si       2.21671781       1.75920597      -2.45579469       0.00000000
Si      -3.31446114      -1.75629006      -0.87164497       0.00000000
Si      -2.95868754       0.30475332       2.62098353       0.00000000
Si      -1.01322171       1.45349154       3.57470935       0.00000000
