10
Lattice="16.28999089631971 0.0 0.0 0.0 16.28999089631971 0.0 0.0 0.0 34.53561885213415" Properties=species:S:1:pos:R:3:initial_magmoms:R:1 pbc="T T T"
Si       1.34008056      -1.37474568       1.38859512       0.00000000
Si      -1.37743793       1.36238157       1.38805292       0.00000000
Si      -1.62187217      -1.17755523      -1.38720131       0.00000000
Si       1.25483499       1.61199324      -1.44394336       0.00000000
Si       0.02740467      -2.55151899      -2.77204586       0.00000000
Si      -2.45984606       2.89170306      -0.17642185       0.00000000
Si      -0.52973614       3.11259546      -2.17330150       0.00000000
Si       2.59102224      -2.83253778      -0.12503628       0.00000000
Si       2.68770339      -0.00381186       2.76499917       0.00000000
Si      -0.02609332       2.70728397       2.77014498       0.00000000
