10
Lattice="16.28999089631971 0.0 0.0 0.0 16.28999089631971 0.0 0.0 0.0 34.53561885213415" Properties=species:S:1:pos:R:3:initial_magmoms:R:1 pbc="T T T"
Si       1.35702437      -1.35718506      -1.35676708       0.00000000
Si       1.35601764       1.35741312       1.35877015       0.00000000
Si      -1.35820165      -1.35716877       1.35718151       0.00000000
Si      -1.35878809       1.35842310      -1.35642172       0.00000000
Si       2.71298605      -0.00102627      -2.71432848       0.00000000
Si       0.00080284      -2.71349065      -2.71446662       0.00000000
Si      -2.71522381       0.00065160      -2.71346509       0.00000000
Si       2.71471279      -2.71406155       0.00024175       0.00000000
Si       2.71399603       2.71565703       0.00037989       0.00000000
Si      -0.00230350       2.71547784      -2.71446662       0.00000000
