10
Lattice="16.28999089631971 0.0 0.0 0.0 16.28999089631971 0.0 0.0 0.0 34.53561885213415" Properties=species:S:1:pos:R:3:initial_magmoms:R:1 pbc="T T T"
Si      -1.35876519       1.35635427       1.36115311       0.00000000
Si       1.35778779      -1.35943308       1.35984075       0.00000000
Si       1.34796492       1.36234899      -1.37432845       0.00000000
Si      -1.34762283      -1.37093382      -1.37640404       0.00000000
Si      -2.71379671       2.71109583       0.00514581       0.00000000
Si       2.72201013       2.70702333       0.00062164       0.00000000
Si       0.00083079       2.71288773       2.71816194       0.00000000
Si      -2.71385047      -2.71767699       0.00024175       0.00000000
Si      -2.71396613      -0.00140094       2.71781658       0.00000000
Si       2.71652040      -2.71573848       0.00031082       0.00000000
