10
Lattice="10.86 0.0 0.0 0.0 10.86 0.0 0.0 0.0 10.86" Properties=species:S:1:pos:R:3:initial_magmoms:R:1 pbc="T T T"
Si       1.20761028      -1.20761028       1.35892266       0.00000000
Si      -1.39306650      -1.32193350      -1.35751086       0.00000000
Si       1.32193350       1.39306650      -1.35751086       0.00000000
Si      -1.39306650       1.39306650       1.35748914       0.00000000
Si       2.66664042      -2.66664042      -0.03277548       0.00000000
Si      -0.03556650      -2.67943350      -2.71501086       0.00000000
Si       2.67943350       0.03556650      -2.71501086       0.00000000
Si       2.67943350       2.75056650      -0.00001086       0.00000000
Si      -2.75056650      -2.67943350      -0.00001086       0.00000000
Si      -2.75056650       0.03556650       2.71498914       0.00000000
