10
Lattice="10.86 0.0 0.0 0.0 10.86 0.0 0.0 0.0 10.86" Properties=species:S:1:pos:R:3:initial_magmoms:R:1 pbc="T T T"
Si       1.29705324      -1.29705324       1.29994200       0.00000000
Si       1.31800218       1.39699782      -1.35602304       0.00000000
Si      -1.39699782      -1.31800218      -1.35602304       0.00000000
Si      -1.39699782       1.39699782       1.35897696       0.00000000
Si       2.67550218       0.03949782      -2.71352304       0.00000000
Si      -0.03949782      -2.67550218      -2.71352304       0.00000000
Si       2.70695274      -2.70695274      -0.07337016       0.00000000
Si       2.67550218       2.75449782       0.00147696       0.00000000
Si      -2.75449782      -2.67550218       0.00147696       0.00000000
Si      -0.03949782       2.75449782      -2.71352304       0.00000000
