10
Lattice="10.86 0.0 0.0 0.0 10.86 0.0 0.0 0.0 10.86" Properties=species:S:1:pos:R:3:initial_magmoms:R:1 pbc="T T T"
Si      -1.22866782      -1.33958100       1.19696748       0.00000000
Si       1.48633218       1.37541900       1.19696748       0.00000000
Si       1.48633218      -1.33958100      -1.51803252       0.00000000
Si      -2.61854148      -0.10944708       2.63495094       0.00000000
Si       0.12883218      -2.69708100       2.55446748       0.00000000
Si      -2.58616782      -2.69708100      -0.16053252       0.00000000
Si      -2.47206180      -0.01576872      -2.83101738       0.00000000
Si       2.84383218       0.01791900       2.55446748       0.00000000
Si       0.38518248       2.66399058       2.74590756       0.00000000
Si       2.84383218      -2.69708100      -0.16053252       0.00000000
