10
Lattice="10.86 0.0 0.0 0.0 10.86 0.0 0.0 0.0 10.86" Properties=species:S:1:pos:R:3:initial_magmoms:R:1 pbc="T T T"
Si      -1.20459120      -1.29186216      -1.10852364       0.00000000
Si      -1.23069864       1.19628330       1.52185524       0.00000000
Si       1.83064848       1.39892004      -1.08282888       0.00000000
Si      -2.42611314       0.01151160      -2.32357302       0.00000000
Si       0.28888686      -2.70348840      -2.32357302       0.00000000
Si       0.28888686       2.72651160      -2.32357302       0.00000000
Si      -2.42611314      -2.70348840       0.39142698       0.00000000
Si      -2.42611314       2.72651160       0.39142698       0.00000000
Si       3.00388686       0.01151160      -2.32357302       0.00000000
Si      -2.42611314       0.01151160       3.10642698       0.00000000
