10
Lattice="10.86 0.0 0.0 0.0 10.86 0.0 0.0 0.0 10.86" Properties=species:S:1:pos:R:3:initial_magmoms:R:1 pbc="T T T"
Si       1.17323838      -1.38740844      -1.24074414       0.00000000
Si       1.17323838       1.32759156       1.47425586       0.00000000
Si      -1.54176162       1.32759156      -1.24074414       0.00000000
Si      -1.83064848      -1.39892004       1.08282888       0.00000000
Si       2.53073838      -0.02990844      -2.59824414       0.00000000
Si       2.53073838       2.68509156       0.11675586       0.00000000
Si      -0.18426162       2.68509156      -2.59824414       0.00000000
Si      -0.18426162      -2.74490844      -2.59824414       0.00000000
Si       2.22098946      -0.09211452       3.07230486       0.00000000
Si       2.59317252      -2.79386532      -0.01557324       0.00000000
