10
Lattice="10.86 0.0 0.0 0.0 10.86 0.0 0.0 0.0 10.86" Properties=species:S:1:pos:R:3:initial_magmoms:R:1 pbc="T T T"
Si      -1.04775108       1.41970608      -1.59804900       0.00000000
Si       1.66724892       1.41970608       1.11695100       0.00000000
Si       1.66724892      -1.29529392      -1.59804900       0.00000000
Si      -2.32609254       0.15614508       2.57466708       0.00000000
Si      -2.40525108       2.77720608      -0.24054900       0.00000000
Si       0.30974892       2.77720608       2.47445100       0.00000000
Si      -2.22098946       0.09211452      -3.07230486       0.00000000
Si       0.56609922      -2.72172234       2.66589108       0.00000000
Si       3.02474892       0.06220608       2.47445100       0.00000000
Si       3.02474892      -2.65279392      -0.24054900       0.00000000
