10
Lattice="10.86 0.0 0.0 0.0 10.86 0.0 0.0 0.0 10.86" Properties=species:S:1:pos:R:3:initial_magmoms:R:1 pbc="T T T"
Si       1.09676226       1.37069490       1.25586126       0.00000000
Si       1.09676226      -1.34430510      -1.45913874       0.00000000
Si      -1.61823774      -1.34430510       1.25586126       0.00000000
Si       2.45426226       0.01319490       2.61336126       0.00000000
Si       2.45426226      -2.70180510      -0.10163874       0.00000000
Si       2.45426226       2.72819490      -0.10163874       0.00000000
Si       2.45426226       0.01319490      -2.81663874       0.00000000
Si      -0.26073774      -2.70180510       2.61336126       0.00000000
Si      -0.30209262       2.93208054       2.41060506       0.00000000
Si      -2.97952788       2.52526494       0.05656974       0.00000000
