10
Lattice="10.86 0.0 0.0 0.0 10.86 0.0 0.0 0.0 10.86" Properties=species:S:1:pos:R:3:initial_magmoms:R:1 pbc="T T T"
Si       1.26794844      -1.28839782      -1.21144386       0.00000000
Si      -1.44705156       1.42660218      -1.21144386       0.00000000
Si       1.26794844       1.42660218       1.50355614       0.00000000
Si      -1.35995436      -1.25749026       1.70828886       0.00000000
Si       2.62544844       0.06910218      -2.56894386       0.00000000
Si      -0.08955156      -2.64589782      -2.56894386       0.00000000
Si       2.43476856       0.10938192       2.81467308       0.00000000
Si      -0.08955156       2.78410218      -2.56894386       0.00000000
Si      -2.80455156       0.06910218      -2.56894386       0.00000000
Si       2.62544844       2.78410218       0.14605614       0.00000000
