10
Lattice="10.86 0.0 0.0 0.0 10.86 0.0 0.0 0.0 10.86" Properties=species:S:1:pos:R:3:initial_magmoms:R:1 pbc="T T T"
Si      -1.26661266       1.59133752      -1.31097576       0.00000000
Si       2.67743526       0.40681560       2.35403532       0.00000000
Si      -0.07768158      -2.52272370       2.68763280       0.00000000
Si      -0.15490704      -2.58553794      -2.80050078       0.00000000
Si      -2.85220524       0.10186680       2.54466090       0.00000000
Si      -2.82270948      -2.62454706      -0.49600878       0.00000000
Si       0.14995488       2.91272802       2.58046632       0.00000000
Si       2.52811026       2.95820970      -0.20459154       0.00000000
Si       2.97952788      -2.52526494      -0.05656974       0.00000000
Si      -2.62084380       2.95937172       0.00246522       0.00000000
