10
Lattice="10.86 0.0 0.0 0.0 10.86 0.0 0.0 0.0 10.86" Properties=species:S:1:pos:R:3:initial_magmoms:R:1 pbc="T T T"
Si       1.39885488       1.15361436       1.56025620       0.00000000
Si       1.39885488      -1.56138564      -1.15474380       0.00000000
Si      -1.31614512      -1.56138564       1.56025620       0.00000000
Si      -2.52748038       2.50591242       0.22643100       0.00000000
Si      -2.67743526      -0.40681560      -2.35403532       0.00000000
Si      -0.14932500       2.55139410      -2.55862686       0.00000000
Si       2.75635488       2.51111436       0.20275620       0.00000000
Si       2.75635488      -0.20388564      -2.51224380       0.00000000
Si       0.30209262      -2.93208054      -2.41060506       0.00000000
Si       0.04135488       2.51111436       2.91775620       0.00000000
