10
Lattice="10.86 0.0 0.0 0.0 10.86 0.0 0.0 0.0 10.86" Properties=species:S:1:pos:R:3:initial_magmoms:R:1 pbc="T T T"
Si      -1.16682012       1.31722026      -1.31111694       0.00000000
Si       1.54817988      -1.39777974      -1.31111694       0.00000000
Si       1.54817988       1.31722026       1.40388306       0.00000000
Si       0.14932500      -2.55139410       2.55862686       0.00000000
Si      -2.37815538      -0.04548168       2.78505786       0.00000000
Si      -2.52432012       2.67472026       0.04638306       0.00000000
Si      -2.43476856      -0.10938192      -2.81467308       0.00000000
Si       0.19067988       2.67472026      -2.66861694       0.00000000
Si       0.19067988       2.67472026       2.76138306       0.00000000
Si       0.42287754      -2.69771088      -2.74484328       0.00000000
