10
Lattice="16.290000149 0.0 0.0 0.0 16.290000149 0.0 0.0 0.0 29.1751946751" Properties=species:S:1:pos:R:3:initial_magmoms:R:1 pbc="T T T"
Si      -1.35837424      -1.31105179       1.40061941       0.00000000
Si       1.33796287       1.37407780       1.36377113       0.00000000
Si      -1.36928854       1.35606106      -1.36049768       0.00000000
Si       1.42438132      -1.37621179      -1.29629183       0.00000000
Si      -2.67952583      -2.65026899       0.00602760       0.00000000
Si      -2.54599670      -0.10383246      -2.81338736       0.00000000
Si       2.67349853       0.00377928      -2.72081447       0.00000000
Si       2.69747741       2.72971532       0.01153587       0.00000000
Si      -0.00597843      -2.67890681       2.75493194       0.00000000
Si       2.80163568      -2.64368783       0.11773358       0.00000000
