10
Lattice="16.290000149 0.0 0.0 0.0 16.290000149 0.0 0.0 0.0 29.1751946751" Properties=species:S:1:pos:R:3:initial_magmoms:R:1 pbc="T T T"
Si       1.72276526      -0.75862531      -1.37686496       0.00000000
Si       1.34154667       1.35490447       1.34929440       0.00000000
Si      -1.43307855       1.17421579      -1.46001427       0.00000000
Si      -1.18489063      -1.69399712       1.19309041       0.00000000
Si      -1.65373964      -0.67673548      -2.89356663       0.00000000
Si       0.65699200      -0.84888820      -3.48293474       0.00000000
Si       2.57618207      -2.60034014      -0.25516625       0.00000000
Si      -2.65025075      -0.42694461       2.54048843       0.00000000
Si      -0.12606831       2.55174707       2.69112200       0.00000000
Si       2.62984133      -0.14620275       2.68088472       0.00000000
