10
Lattice="16.290000149 0.0 0.0 0.0 16.290000149 0.0 0.0 0.0 29.1751946751" Properties=species:S:1:pos:R:3:initial_magmoms:R:1 pbc="T T T"
Si      -1.33711579       1.16178652       1.55192488       0.00000000
Si      -1.30722364      -1.43907490      -1.37702251       0.00000000
Si       1.42863301      -1.36798534       1.33026634       0.00000000
Si       0.85926493       1.98746147      -1.06380929       0.00000000
H        1.93795616       0.28926153      -1.88283286       0.00000000
Si      -0.88964578       3.54182070      -0.65064185       0.00000000
Si      -2.73206108       2.53118909       0.29023484       0.00000000
Si      -2.69788466      -0.00434943      -2.60001749       0.00000000
Si       0.08027712       2.61689078       2.78636530       0.00000000
Si      -2.63502155      -2.81950581      -0.00169216       0.00000000
