10
Lattice="16.290000149 0.0 0.0 0.0 16.290000149 0.0 0.0 0.0 29.1751946751" Properties=species:S:1:pos:R:3:initial_magmoms:R:1 pbc="T T T"
Si      -2.30650112      -0.08899716       0.34779750       0.00000000
H       -0.90779284       1.56700027      -1.49531625       0.00000000
Si       0.97041160      -0.40428848      -2.15172896       0.00000000
Si       1.01946079       2.15278868       0.39383595       0.00000000
Si       0.05170446      -2.06785262       1.28890175       0.00000000
H       -2.92193733       1.21797073      -0.08527909       0.00000000
Si       2.83843479       1.26596107       1.54395130       0.00000000
Si       2.88776091      -1.46336329      -1.37143838       0.00000000
Si       3.52302204      -0.78371354       0.77486400       0.00000000
Si      -3.16188903      -1.75083293      -1.03971641       0.00000000
