10
Lattice="16.290000149 0.0 0.0 0.0 16.290000149 0.0 0.0 0.0 29.1751946751" Properties=species:S:1:pos:R:3:initial_magmoms:R:1 pbc="T T T"
H       -0.15491790       0.79661359       1.27469343       0.00000000
Si       1.07370649       1.16882380      -1.70514425       0.00000000
Si      -2.21239379       0.07574850      -0.81136216       0.00000000
Si       0.85959073      -2.07966287       0.79575343       0.00000000
H       -1.44388045      -1.86439052       1.69262809       0.00000000
H       -1.55813851       2.83180476       0.80713176       0.00000000
Si      -2.70817994      -1.90241138       0.84888146       0.00000000
Si       1.94808854      -0.61484977      -2.98619788       0.00000000
Si       0.71255719      -1.66887794       3.15678524       0.00000000
Si      -2.76035682       2.46272222      -0.07550540       0.00000000
