10
Lattice="16.290000149 0.0 0.0 0.0 16.290000149 0.0 0.0 0.0 29.1751946751" Properties=species:S:1:pos:R:3:initial_magmoms:R:1 pbc="T T T"
Si      -1.42700401       1.37777563      -1.24845034       0.00000000
Si      -1.27770616      -1.30943419       1.47271423       0.00000000
Si       1.37594952      -1.29365896      -1.39973831       0.00000000
Si       1.38523808       1.38010510       1.31283416       0.00000000
Si      -2.59621877      -2.66363803       0.14910858       0.00000000
Si      -0.09402588       2.72166806      -2.58940473       0.00000000
Si       2.68433138      -2.67717475      -0.01237612       0.00000000
Si       2.67900455       0.02212182       2.74063901       0.00000000
Si       0.03665999       2.70467759       2.72217112       0.00000000
Si      -0.01586646      -2.58485080      -2.84460190       0.00000000
