10
Lattice="16.290000149 0.0 0.0 0.0 16.290000149 0.0 0.0 0.0 29.1751946751" Properties=species:S:1:pos:R:3:initial_magmoms:R:1 pbc="T T T"
Si       1.35514882      -1.36590022       1.33753680       0.00000000
Si      -1.35531172      -1.36857178      -1.33718670       0.00000000
Si       1.37450134       1.33545421      -1.36329850       0.00000000
Si      -1.37741725       1.34583094       1.35804696       0.00000000
Si       2.64929159       0.07019361       2.65074149       0.00000000
Si      -2.68430858      -0.00871515      -2.71107579       0.00000000
Si       0.02842605      -2.72302176      -2.67256453       0.00000000
Si      -2.70725304       2.70441695      -0.00676865       0.00000000
Si       0.03051117       2.71744895      -2.70704961       0.00000000
Si      -2.70332878      -2.72169902       0.03909476       0.00000000
