10
Lattice="16.290000149 0.0 0.0 0.0 16.290000149 0.0 0.0 0.0 29.1751946751" Properties=species:S:1:pos:R:3:initial_magmoms:R:1 pbc="T T T"
Si       1.41589423      -1.33442794      -1.30275997       0.00000000
Si       1.37222074       1.32605488       1.36577839       0.00000000
Si      -1.35185824      -1.37424070       1.34777729       0.00000000
Si      -1.35239581       1.31988097      -1.40636108       0.00000000
Si       0.11127699      -2.69788466      -2.65239864       0.00000000
Si       0.00353493       2.70666497       2.68747306       0.00000000
Si       2.74931220       2.64554489       0.00210061       0.00000000
Si      -2.72155403      -0.01018125       2.68417626       0.00000000
Si      -2.71538012       2.69444747      -0.05765018       0.00000000
Si      -2.69633711      -2.73310365      -0.01520028       0.00000000
