10
Lattice="16.290000149 0.0 0.0 0.0 16.290000149 0.0 0.0 0.0 29.1751946751" Properties=species:S:1:pos:R:3:initial_magmoms:R:1 pbc="T T T"
Si       0.65951695      -0.44049789       2.12559090       0.00000000
Si      -1.06826563      -1.76484233      -1.05401226       0.00000000
Si      -1.70595398       1.59249412      -0.01254533       0.00000000
Si       1.79049908       0.57849049      -1.44242162       0.00000000
Si      -0.31252365       3.02583495      -1.19072722       0.00000000
H        3.09808110       1.10550457      -0.51138281       0.00000000
H       -0.48956337      -3.05918058       1.32965950       0.00000000
Si      -1.99500374      -0.72677836      -2.89140767       0.00000000
Si       0.76400101       1.91739818      -3.05607247       0.00000000
Si      -1.24706467      -1.23549877       3.25213853       0.00000000
