10
Lattice="16.290000149 0.0 0.0 0.0 16.290000149 0.0 0.0 0.0 29.1751946751" Properties=species:S:1:pos:R:3:initial_magmoms:R:1 pbc="T T T"
Si      -1.31937272       0.28093734       1.90814526       0.00000000
Si       2.21239379      -0.07574850       0.81136216       0.00000000
Si      -1.29767607      -0.15182280      -2.02046976       0.00000000
Si      -0.54796302       2.38697372       0.73585676       0.00000000
Si      -0.49578615      -1.97815988       1.66024363       0.00000000
H        2.05747589       0.72086509       2.08605559       0.00000000
H       -2.43441672       0.81438598      -1.72860111       0.00000000
H        0.21908421      -1.62541621      -2.65395076       0.00000000
H        0.76851334      -1.94013902       2.50399026       0.00000000
H        0.65425528       2.75605626       1.61849392       0.00000000
