10
Lattice="16.290000149 0.0 0.0 0.0 16.290000149 0.0 0.0 0.0 29.1751946751" Properties=species:S:1:pos:R:3:initial_magmoms:R:1 pbc="T T T"
Si       1.36487395       1.35506737       1.34763142       0.00000000
Si       1.36969579      -1.36405945      -1.33639897       0.00000000
Si      -1.34850250      -1.34851879       1.37733177       0.00000000
Si      -1.34884459       1.36120870      -1.36469891       0.00000000
Si      -0.00860112       2.71981100       2.68117122       0.00000000
Si       2.72155403       0.01018125      -2.68417626       0.00000000
Si       2.71630865      -0.02099781       2.68954450       0.00000000
Si      -2.69547374      -2.71212212       0.02643273       0.00000000
Si       0.02521692      -2.72292239      -2.69937654       0.00000000
Si      -2.70656723       0.00348606      -2.71731928       0.00000000
