10
Lattice="16.290000149 0.0 0.0 0.0 16.290000149 0.0 0.0 0.0 29.1751946751" Properties=species:S:1:pos:R:3:initial_magmoms:R:1 pbc="T T T"
Si      -1.43289611       1.21296970      -1.38237907       0.00000000
Si       1.14324850      -1.42829092      -1.46264003       0.00000000
Si      -1.47867426      -1.20275587       1.38634690       0.00000000
Si       1.50386023       1.34135119       1.30205976       0.00000000
H        0.03808602      -2.67634928       0.75286590       0.00000000
H       -2.61541491      -0.23654709       1.67821555       0.00000000
H        2.05223051      -2.32731974      -0.65717126       0.00000000
Si      -0.18099819      -1.05093307       3.40681666       0.00000000
Si      -0.06509484       2.64051128      -2.68160884       0.00000000
Si      -2.86863645       2.45773748      -0.01400409       0.00000000
