10
Lattice="16.290000149 0.0 0.0 0.0 16.290000149 0.0 0.0 0.0 29.1751946751" Properties=species:S:1:pos:R:3:initial_magmoms:R:1 pbc="T T T"
Si       1.54380331      -1.26180712      -1.20187214       0.00000000
Si       1.39489642       1.31786101       1.36986583       0.00000000
Si      -1.21772638      -1.43609383       1.44107373       0.00000000
Si      -1.47457081       1.20863656      -1.45050315       0.00000000
H        0.37510983      -1.83220148      -2.24083000       0.00000000
Si      -2.67561623       2.67815747      -0.01881800       0.00000000
Si       2.85656751       2.49484610      -0.04600928       0.00000000
Si      -2.65294055      -0.06874380       2.72882890       0.00000000
Si      -0.14162526       2.53768880      -2.84901611       0.00000000
Si       0.06024042       2.74924704       2.68847085       0.00000000
