10
Lattice="16.290000149 0.0 0.0 0.0 16.290000149 0.0 0.0 0.0 29.1751946751" Properties=species:S:1:pos:R:3:initial_magmoms:R:1 pbc="T T T"
Si       1.31087260      -1.42646644       1.29686658       0.00000000
Si      -1.35057133      -1.38670255      -1.32283250       0.00000000
Si       1.37585341       1.33037173      -1.35489604       0.00000000
Si      -1.29912751       1.35842311       1.41686415       0.00000000
Si       2.66085749      -0.08317674       2.60940024       0.00000000
Si       0.00830790       2.68775228      -2.68166719       0.00000000
Si      -2.67026823       2.70115895       0.06118038       0.00000000
Si      -2.69031144      -0.02710656      -2.68391368       0.00000000
Si      -2.63066724      -0.03823263       2.75965249       0.00000000
Si       0.03595203      -2.73795807      -2.65873549       0.00000000
