10
Lattice="16.290000149 0.0 0.0 0.0 16.290000149 0.0 0.0 0.0 29.1751946751" Properties=species:S:1:pos:R:3:initial_magmoms:R:1 pbc="T T T"
H       -1.13674065       0.96620878       0.29186865       0.00000000
H        1.51676028      -1.47359341      -0.63348100       0.00000000
Si       1.47867426       1.20275587      -1.38634690       0.00000000
Si       1.29767607       0.15182280       2.02046976       0.00000000
Si      -1.31775203      -1.70144165      -1.13368971       0.00000000
H       -2.29822743      -0.83282626       2.20062658       0.00000000
Si       2.13219649      -2.78056130      -0.20040441       0.00000000
Si       0.04577816       2.41572557      -2.76872597       0.00000000
Si      -2.60791662      -0.35445411      -2.63390740       0.00000000
Si       0.74971305       2.53879652       2.75632652       0.00000000
