10
Lattice="16.290000149 0.0 0.0 0.0 16.290000149 0.0 0.0 0.0 29.1751946751" Properties=species:S:1:pos:R:3:initial_magmoms:R:1 pbc="T T T"
Si      -1.38326536       1.34433226       1.33537784       0.00000000
Si      -1.36572103      -1.34078104      -1.37102992       0.00000000
Si       1.34416936       1.37142253      -1.36294839       0.00000000
Si       1.34069959      -1.36521604       1.37496857       0.00000000
Si      -2.68086161       2.64670148      -0.12551169       0.00000000
Si       2.66096990      -2.70179426      -0.03197601       0.00000000
Si       0.00464265       2.70366761       2.66527073       0.00000000
Si      -2.73253350      -0.04675230       2.68055854       0.00000000
Si       2.73211484       0.01096317       2.68613100       0.00000000
Si      -0.02005299      -2.69340491      -2.73406584       0.00000000
