10
Lattice="16.290000149 0.0 0.0 0.0 16.290000149 0.0 0.0 0.0 29.1751946751" Properties=species:S:1:pos:R:3:initial_magmoms:R:1 pbc="T T T"
Si      -1.35850456      -1.36143676      -1.33566959       0.00000000
Si      -1.34566804       1.35262387       1.36303592       0.00000000
Si       1.33921720      -1.37256283       1.35066564       0.00000000
Si       1.34161183       1.35391078      -1.37671909       0.00000000
Si       2.68102289      -0.00838935       2.70208983       0.00000000
Si      -2.70337439       2.68061726      -0.02447799       0.00000000
Si       0.00692325      -2.70790301      -2.68592677       0.00000000
Si      -2.68902290       0.00244350      -2.71300135       0.00000000
Si      -2.69966027      -0.02171457       2.70503652       0.00000000
Si       2.69252363       2.71549415      -0.02336933       0.00000000
