10
Lattice="16.290000149 0.0 0.0 0.0 16.290000149 0.0 0.0 0.0 29.1751946751" Properties=species:S:1:pos:R:3:initial_magmoms:R:1 pbc="T T T"
Si       1.32115159       1.33921720       1.39459181       0.00000000
Si      -1.35276560       1.35702217      -1.37037640       0.00000000
Si       1.41416749      -1.39022119      -1.28372899       0.00000000
Si      -1.37995686      -1.35786925       1.36028178       0.00000000
Si       0.01651806      -2.64593585      -2.67323440       0.00000000
Si       2.67952583       2.65026899      -0.00602760       0.00000000
Si       0.13352913       2.54643653      -2.81941496       0.00000000
Si       2.61304634      -2.78526423       0.15895521       0.00000000
Si      -2.85922083      -0.01630629      -2.54195711       0.00000000
Si       2.67354740      -0.02863782       2.74890435       0.00000000
