10
Lattice="16.290000149 0.0 0.0 0.0 16.290000149 0.0 0.0 0.0 29.1751946751" Properties=species:S:1:pos:R:3:initial_magmoms:R:1 pbc="T T T"
Si       1.36230013      -1.35183381       1.35139502       0.00000000
Si      -1.36150192       1.36380696       1.34386782       0.00000000
Si       1.35001747       1.38783471      -1.33450258       0.00000000
Si      -1.34975683      -1.38819309      -1.33625309       0.00000000
Si      -2.77205304      -0.04180829      -2.61120910       0.00000000
Si       0.00206883      -2.71608874       2.69228696       0.00000000
Si       2.79073767       0.05598547      -2.61660651       0.00000000
Si       0.00003258       2.70633103       2.70687456       0.00000000
Si      -2.72764650       0.01513015       2.69018635       0.00000000
Si      -0.02177973       2.72633515      -2.69996004       0.00000000
