10
Lattice="16.290000149 0.0 0.0 0.0 16.290000149 0.0 0.0 0.0 29.1751946751" Properties=species:S:1:pos:R:3:initial_magmoms:R:1 pbc="T T T"
Si      -1.67666456       1.68034610       0.25137348       0.00000000
Si       0.36048141      -0.23200218       2.36009820       0.00000000
Si       1.63823644       1.05634135      -1.43282299       0.00000000
Si      -1.06987834      -1.69385051      -1.38100784       0.00000000
H        1.89145798      -1.63794322       0.25939666       0.00000000
H        0.54164250       2.46560555       1.37187600       0.00000000
H       -1.08035281       0.05810643       2.80259838       0.00000000
Si      -2.41285853      -0.27919431      -2.75235869       0.00000000
Si       0.34621137       2.47164914      -2.78914861       0.00000000
Si      -3.53864415       0.83831599      -1.00047578       0.00000000
