10
Lattice="16.290000149 0.0 0.0 0.0 16.290000149 0.0 0.0 0.0 29.1751946751" Properties=species:S:1:pos:R:3:initial_magmoms:R:1 pbc="T T T"
Si       1.21478457      -1.28680576      -1.60705725       0.00000000
Si      -1.29016459       1.34698753      -1.50021769       0.00000000
Si      -1.43799634      -1.42172442       1.34821492       0.00000000
Si       1.31775203       1.70144165       1.13368971       0.00000000
H        2.83451232       0.22784823       0.50020871       0.00000000
H        0.18101139       2.66765042       1.42555836       0.00000000
H       -0.98047540       0.86861539       3.33431630       0.00000000
Si      -2.62917002      -2.57108347      -0.34257514       0.00000000
Si       3.44994852      -1.07911966       0.93328530       0.00000000
Si       2.59456061      -2.74095543      -0.45422861       0.00000000
