10
Lattice="16.290000149 0.0 0.0 0.0 16.290000149 0.0 0.0 0.0 29.1751946751" Properties=species:S:1:pos:R:3:initial_magmoms:R:1 pbc="T T T"
Si       1.37814053      -1.21632544       1.47915524       0.00000000
Si       1.35974912       1.43242858      -1.31072480       0.00000000
Si      -1.23878284       1.54720548       1.31504272       0.00000000
Si      -1.41606691      -1.40460526      -1.34658111       0.00000000
H       -2.67789032       1.88268419       0.86562803       0.00000000
Si      -0.42360028       2.63733962      -2.28532217       0.00000000
Si       0.07113029      -2.59385672      -2.67198103       0.00000000
Si       2.84575551      -2.41316804       0.13732764       0.00000000
Si      -1.28050153       3.57306492      -0.33831556       0.00000000
Si      -2.57746247       0.16443126       2.81177397       0.00000000
