10
Lattice="16.290000149 0.0 0.0 0.0 16.290000149 0.0 0.0 0.0 29.1751946751" Properties=species:S:1:pos:R:3:initial_magmoms:R:1 pbc="T T T"
Si      -0.56136970       1.03597885       2.00842040       0.00000000
Si      -1.62184870      -1.68725306      -0.07016634       0.00000000
Si       2.19592460      -0.72163072      -0.46359384       0.00000000
Si       0.04385268       2.14501835      -0.98098675       0.00000000
Si       0.67911382       2.82466811       1.16531563       0.00000000
Si       1.90721693       0.16241130      -2.70562003       0.00000000
Si       1.92489158      -2.75103894       0.73314347       0.00000000
Si      -3.44460198      -0.23047092       0.09274794       0.00000000
Si      -0.22066434      -0.80726725      -3.38592722       0.00000000
Si      -2.79220377       1.54052902       1.67935338       0.00000000
