10
Lattice="16.290000149 0.0 0.0 0.0 16.290000149 0.0 0.0 0.0 29.1751946751" Properties=species:S:1:pos:R:3:initial_magmoms:R:1 pbc="T T T"
Si       1.34669431       1.01908612      -1.63486121       0.00000000
Si       1.43505127      -1.62698022       0.92634161       0.00000000
Si      -1.83363500      -1.18633392      -1.00785710       0.00000000
Si      -0.10544517       1.73094284       1.80711156       0.00000000
H       -2.25223913       1.47999538       0.49236059       0.00000000
Si       2.77405671       2.29109078      -0.23130094       0.00000000
Si       0.63143299       0.40461102       3.59730150       0.00000000
Si       2.62622495      -0.47762118       2.61713166       0.00000000
Si      -2.89768152       2.32078745      -0.58717997       0.00000000
Si       0.14454117      -3.06411645       2.20827048       0.00000000
