10
Lattice="16.290000149 0.0 0.0 0.0 16.290000149 0.0 0.0 0.0 29.1751946751" Properties=species:S:1:pos:R:3:initial_magmoms:R:1 pbc="T T T"
Si      -1.50645523      -1.37332846      -1.17158071       0.00000000
Si       1.35276560      -1.35702217       1.37037640       0.00000000
Si      -1.40889442       1.33882624       1.36588342       0.00000000
Si       1.48629473       1.18941436      -1.44903856       0.00000000
Si      -2.64831908       0.11127699      -2.56916181       0.00000000
Si      -0.19002448      -2.72973161      -2.51442914       0.00000000
Si       2.66300289       2.64930788       0.00385113       0.00000000
Si       0.12980524       2.60087771      -2.76069696       0.00000000
Si      -0.07330337       2.69369813       2.74194898       0.00000000
Si       2.67391719      -0.01780497       2.76496821       0.00000000
