10
Lattice="16.290000149 0.0 0.0 0.0 16.290000149 0.0 0.0 0.0 29.1751946751" Properties=species:S:1:pos:R:3:initial_magmoms:R:1 pbc="T T T"
Si       1.49016034      -1.26475561      -1.28537155       0.00000000
Si      -1.34298019       1.41465619      -1.37135085       0.00000000
Si      -1.38934153      -1.82490356       0.75304095       0.00000000
Si       1.06987834       1.69385051       1.38100784       0.00000000
H        2.96133632       0.05590728       1.64040450       0.00000000
Si      -2.46876581       2.53216649       0.38053206       0.00000000
Si       0.06279795      -2.53676027      -2.68893182       0.00000000
Si      -0.60678622       3.37419660       1.63238132       0.00000000
Si       2.78032493      -2.61174314       0.21484613       0.00000000
Si      -3.14825430      -0.85286296       2.01110452       0.00000000
