10
Lattice="16.290000149 0.0 0.0 0.0 16.290000149 0.0 0.0 0.0 29.1751946751" Properties=species:S:1:pos:R:3:initial_magmoms:R:1 pbc="T T T"
Si      -1.31643075       1.35640315       1.34284844       0.00000000
Si       1.55930814      -1.27322641       1.21157115       0.00000000
Si      -1.27999002      -1.92425627      -0.56570702       0.00000000
Si       0.64802924       1.71670538      -1.53076411       0.00000000
Si       0.15354465      -2.65892387       2.53251485       0.00000000
Si       0.11171682       0.76942558      -3.60564561       0.00000000
Si       0.19002448       2.72973161       2.51442914       0.00000000
Si      -2.45829460       2.84100861      -0.05473267       0.00000000
Si      -2.64940888       0.01251072       2.68380282       0.00000000
Si      -0.42308877      -2.85998157      -2.51271364       0.00000000
