10
Lattice="16.290000149 0.0 0.0 0.0 16.290000149 0.0 0.0 0.0 29.1751946751" Properties=species:S:1:pos:R:3:initial_magmoms:R:1 pbc="T T T"
Si       1.38078928       1.34428339      -1.33070980       0.00000000
Si       1.37218816      -1.34654770       1.34188390       0.00000000
Si      -1.35058762       1.38080557       1.34243823       0.00000000
Si      -1.38034945      -1.34030863      -1.36163551       0.00000000
Si      -0.04150692       2.69066819      -2.60566581       0.00000000
Si       0.00011403      -2.69019578       2.68382616       0.00000000
Si      -2.71925714       0.02425581       2.68090864       0.00000000
Si       2.72668538      -2.70308117      -0.01957656       0.00000000
Si       2.73261494       0.01638774       2.69783025       0.00000000
Si      -0.04359204      -2.78441715      -2.64624851       0.00000000
