10
Lattice="16.290000149 0.0 0.0 0.0 16.290000149 0.0 0.0 0.0 29.1751946751" Properties=species:S:1:pos:R:3:initial_magmoms:R:1 pbc="T T T"
Si       1.43936801      -1.34897491       1.28665526       0.00000000
Si      -1.25848396      -1.36832743      -1.45493778       0.00000000
Si       1.37929060       1.32696712      -1.38862257       0.00000000
Si      -1.42967557       1.28282122       1.41161262       0.00000000
Si       0.09014886      -2.75915136       2.59207017       0.00000000
Si      -2.69175962       2.67338288      -0.01975161       0.00000000
Si      -0.02989215       2.69940941       2.67025969       0.00000000
Si      -2.59535540      -2.81611749      -0.19871225       0.00000000
Si      -2.72613152      -0.30722940       2.68793986       0.00000000
Si       2.75040037       2.69927094      -0.05931317       0.00000000
