10
Lattice="16.290000149 0.0 0.0 0.0 16.290000149 0.0 0.0 0.0 29.1751946751" Properties=species:S:1:pos:R:3:initial_magmoms:R:1 pbc="T T T"
Si      -1.49016034       1.26475561       1.28537155       0.00000000
Si       1.29539759       1.35777151      -1.44589347       0.00000000
Si      -1.42736239      -1.27200466      -1.40356027       0.00000000
Si       1.29016459      -1.34698753       1.50021769       0.00000000
H        1.47117598       1.32066289       2.92577605       0.00000000
Si      -2.87950188      -0.56014795       2.03841250       0.00000000
Si      -2.77405671      -2.29109078       0.23130094       0.00000000
Si       2.50494916      -2.63379329      -0.10683956       0.00000000
Si       2.60791662       0.35445411       2.63390740       0.00000000
Si       2.65369478       2.77017969      -0.13481857       0.00000000
