10
Lattice="16.290000149 0.0 0.0 0.0 16.290000149 0.0 0.0 0.0 29.1751946751" Properties=species:S:1:pos:R:3:initial_magmoms:R:1 pbc="T T T"
Si       1.16869348       0.57039436       1.03895786       0.00000000
Si      -1.30758202      -0.52701408      -0.93103881       0.00000000
Si      -0.07646526      -2.37684134      -1.60343952       0.00000000
Si      -0.37510983       1.83220148       2.24083000       0.00000000
Si       2.83526964       1.36583506      -0.40819015       0.00000000
Si      -3.09808110      -1.10550457       0.51138281       0.00000000
Si       2.31055733      -0.91421110       2.43653896       0.00000000
Si      -2.33408009       0.81189361      -2.54468965       0.00000000
Si      -1.84968065       3.04083804       0.79032685       0.00000000
H       -0.34814988       0.72830962      -3.60549973       0.00000000
