10
Lattice="16.290000149 0.0 0.0 0.0 16.290000149 0.0 0.0 0.0 29.1751946751" Properties=species:S:1:pos:R:3:initial_magmoms:R:1 pbc="T T T"
H        1.22663701      -1.95569597       0.22146890       0.00000000
H       -1.98265592      -0.62082820      -1.08152447       0.00000000
Si       1.87717817       0.71195446       1.27180509       0.00000000
Si      -0.75929320      -1.87211198       1.28227898       0.00000000
Si       0.63032527      -0.33345630      -2.32975600       0.00000000
Si      -1.77811868       1.54919530       0.63461883       0.00000000
H       -2.63363690      -0.19816785      -1.12286572       0.00000000
H       -0.43504074       2.16199253      -2.21290934       0.00000000
H        2.32733603       1.99593227       0.60719415       0.00000000
H        2.84863233       0.45180315      -1.20925347       0.00000000
