10
Lattice="16.290000149 0.0 0.0 0.0 16.290000149 0.0 0.0 0.0 29.1751946751" Properties=species:S:1:pos:R:3:initial_magmoms:R:1 pbc="T T T"
Si      -1.32983579       1.35858601      -1.36481561       0.00000000
Si       1.31049793       1.43031088       1.32245322       0.00000000
Si      -1.34219990      -1.36821340       1.36291922       0.00000000
Si       1.37741725      -1.34583094      -1.35804696       0.00000000
Si       2.66655899       0.07341903       2.62559247       0.00000000
Si      -2.65010609       2.69516423       0.04212898       0.00000000
Si       2.68284899       2.68310963      -0.10949451       0.00000000
Si      -2.67164147      -0.00558747      -2.71623980       0.00000000
Si      -2.61379520      -0.00687438       2.78561841       0.00000000
Si       0.02210553      -2.71440272      -2.69523366       0.00000000
