10
Lattice="16.290000149 0.0 0.0 0.0 16.290000149 0.0 0.0 0.0 29.1751946751" Properties=species:S:1:pos:R:3:initial_magmoms:R:1 pbc="T T T"
Si      -0.65951695       0.44049789      -2.12559090       0.00000000
Si      -1.90658162      -0.79500088       1.12654763       0.00000000
Si       0.84572794       1.94211011       1.04493002       0.00000000
Si       1.71090614      -1.66706975      -0.14798913       0.00000000
H       -1.14908032      -2.61868268      -0.79593140       0.00000000
Si       2.15894630       0.67986316       2.51754214       0.00000000
Si      -0.65304982      -2.16635825       2.53624927       0.00000000
Si       3.41614335      -0.71210107       1.14051963       0.00000000
Si       0.85542049      -3.39827811       1.25540571       0.00000000
Si      -2.36547092       2.03299202      -2.13813623       0.00000000
