10
Lattice="16.290000149 0.0 0.0 0.0 16.290000149 0.0 0.0 0.0 29.1751946751" Properties=species:S:1:pos:R:3:initial_magmoms:R:1 pbc="T T T"
Si       1.05715585      -1.46686564      -1.47801536       0.00000000
Si      -1.31512429      -1.35799957       1.38348773       0.00000000
Si      -1.44827875       1.35047359      -1.28353351       0.00000000
Si       1.81390781       0.75484603       1.38590927       0.00000000
Si       2.15847389      -1.19606068       2.75515951       0.00000000
Si       0.28611756      -2.65720853       2.59446254       0.00000000
Si       2.43225992      -0.14747337      -2.83451604       0.00000000
Si      -2.69876432       0.12450447       2.59384986       0.00000000
Si       2.28118646      -2.99983611      -0.23687341       0.00000000
Si      -0.14669145       2.58673799      -2.78360532       0.00000000
