10
Lattice="16.290000149 0.0 0.0 0.0 16.290000149 0.0 0.0 0.0 29.1751946751" Properties=species:S:1:pos:R:3:initial_magmoms:R:1 pbc="T T T"
Si      -1.36762696      -1.36120870       1.32306590       0.00000000
Si      -1.38495952       1.34782647      -1.32108199       0.00000000
Si       1.33131655      -1.35190711      -1.37744847       0.00000000
Si       1.36287028       1.36788923       1.34057102       0.00000000
Si      -0.01777239       2.68136660      -2.64389407       0.00000000
Si       0.01167993      -2.70884783       2.65818116       0.00000000
Si       2.68858307       0.04055928      -2.68474226       0.00000000
Si      -2.69021207       0.00851967       2.70836250       0.00000000
Si      -2.69625566      -2.70547580      -0.08907187       0.00000000
Si       0.01019754       2.72533332       2.68805656       0.00000000
