10
Lattice="16.290000149 0.0 0.0 0.0 16.290000149 0.0 0.0 0.0 29.1751946751" Properties=species:S:1:pos:R:3:initial_magmoms:R:1 pbc="T T T"
Si       1.46986276      -1.29265761       1.27049220       0.00000000
Si      -1.39978342      -1.41658819      -1.25864707       0.00000000
Si      -1.23035113       1.43074094       1.41733096       0.00000000
Si       1.38448711       1.33640555      -1.38016176       0.00000000
Si       0.15827364      -2.62823840       2.63775853       0.00000000
Si      -2.58361031       2.73982164      -0.00962781       0.00000000
Si      -2.66186747      -0.02602653      -2.69001130       0.00000000
Si       0.02989215      -2.69940941      -2.67025969       0.00000000
Si       2.70196042       0.06895231       2.71405166       0.00000000
Si       2.76400415       2.69917809      -0.04770144       0.00000000
