10
Lattice="16.290000149 0.0 0.0 0.0 16.290000149 0.0 0.0 0.0 29.1751946751" Properties=species:S:1:pos:R:3:initial_magmoms:R:1 pbc="T T T"
Si       1.77003884       1.00714555       1.15306204       0.00000000
Si       1.34169817      -1.30214116      -1.42310765       0.00000000
Si      -1.23098644       1.49174047      -1.35953490       0.00000000
Si      -1.30196197      -1.28953270       1.50115129       0.00000000
H       -3.15231051      -0.79749325      -1.58007019       0.00000000
Si      -2.29504925       0.47961018       2.77429844       0.00000000
Si      -2.50623281       0.02837718      -2.65759766       0.00000000
Si       3.42329466      -0.64580077       1.24817318       0.00000000
Si       2.76058488      -2.52446132      -0.04723464       0.00000000
Si       2.69247638       2.73478151      -0.13041312       0.00000000
