10
Lattice="16.290000149 0.0 0.0 0.0 16.290000149 0.0 0.0 0.0 29.1751946751" Properties=species:S:1:pos:R:3:initial_magmoms:R:1 pbc="T T T"
Si       1.48719719      -1.18925146      -1.32539992       0.00000000
Si      -1.13424013      -1.62864163       1.21065388       0.00000000
Si      -1.75588283       1.19402443      -0.99624537       0.00000000
Si       1.41606691       1.40460526       1.34658111       0.00000000
H       -2.01697895      -0.87876406       2.19648371       0.00000000
Si      -3.34156773       1.35464383       0.71172887       0.00000000
Si       2.92027575      -2.36346725       0.13461435       0.00000000
Si       2.66536982       0.34733538      -2.63227359       0.00000000
Si      -0.90712495       3.13323981      -1.99701290       0.00000000
Si      -2.72816777      -2.74756917      -0.12790405       0.00000000
