10
Lattice="16.290000149 0.0 0.0 0.0 16.290000149 0.0 0.0 0.0 29.1751946751" Properties=species:S:1:pos:R:3:initial_magmoms:R:1 pbc="T T T"
Si       1.81897400      -0.88682761       1.15011535       0.00000000
Si      -0.87438205       1.78367357       1.28105362       0.00000000
Si       1.12068685       1.44104599      -1.55028232       0.00000000
Si      -1.01946079      -2.15278868      -0.39383595       0.00000000
H       -1.92725363      -0.58578841      -1.88915221       0.00000000
Si       2.60708420       2.45521253      -0.08061106       0.00000000
Si      -0.04904919      -2.55707716      -2.54556491       0.00000000
Si      -1.94808854       0.61484977       2.98619788       0.00000000
Si       0.99797428       3.24482142       1.44175060       0.00000000
H        3.19762929      -0.62677405      -1.75587992       0.00000000
