10
Lattice="16.290000149 0.0 0.0 0.0 16.290000149 0.0 0.0 0.0 29.1751946751" Properties=species:S:1:pos:R:3:initial_magmoms:R:1 pbc="T T T"
Si      -1.42879591       1.44472753       1.12105686       0.00000000
Si      -1.35974260      -1.30816846      -1.38943947       0.00000000
Si       1.34926813       1.39108456      -1.34518070       0.00000000
Si       1.33213105      -1.31416318       1.44312183       0.00000000
H       -0.58370329       2.38011563       1.92874294       0.00000000
Si      -2.70076799      -2.64096740      -0.01695079       0.00000000
Si       0.01282023      -2.66836718      -2.70958785       0.00000000
Si       2.71749782      -2.66481596       0.08822579       0.00000000
Si       2.73253350       0.04675230      -2.68055854       0.00000000
Si      -2.72438849       2.73823500      -0.30523089       0.00000000
