10
Lattice="16.290000149 0.0 0.0 0.0 16.290000149 0.0 0.0 0.0 29.1751946751" Properties=species:S:1:pos:R:3:initial_magmoms:R:1 pbc="T T T"
Si      -1.23111676       1.84982726       0.67240071       0.00000000
Si      -1.54118062      -0.72076735      -1.60055118       0.00000000
Si       1.61767846       0.67730563      -1.56457816       0.00000000
Si       0.13527216      -1.46362393       1.91619761       0.00000000
H        0.35233641      -2.53619501      -0.83540252       0.00000000
H        0.07646526       2.37684134       1.60343952       0.00000000
H        1.53863938      -0.38993373      -2.63650399       0.00000000
Si      -2.74730853      -2.03706452      -0.08770064       0.00000000
Si       2.42346332      -1.81802918       2.13142302       0.00000000
H       -0.27168462       3.10515096      -2.00206021       0.00000000
