10
Lattice="16.290000149 0.0 0.0 0.0 16.290000149 0.0 0.0 0.0 29.1751946751" Properties=species:S:1:pos:R:3:initial_magmoms:R:1 pbc="T T T"
Si       0.68458726      -2.04967461      -0.76908731       0.00000000
Si      -0.60636268      -0.51911343       2.18385085       0.00000000
Si      -1.81897400       0.88682761      -1.15011535       0.00000000
Si       1.76653649       1.48304161      -0.33318072       0.00000000
H        1.37865529       0.26005356      -2.90599527       0.00000000
Si       0.15938136       1.52726896       3.06479585       0.00000000
Si      -2.83843479      -1.26596107      -1.54395130       0.00000000
Si       2.14754330       2.12991752       1.89052344       0.00000000
Si      -0.69828715       2.32787360      -2.70039767       0.00000000
Si       0.78811021       3.34204014      -1.23072641       0.00000000
