10
Lattice="16.290000149 0.0 0.0 0.0 16.290000149 0.0 0.0 0.0 29.1751946751" Properties=species:S:1:pos:R:3:initial_magmoms:R:1 pbc="T T T"
Si      -1.37774305       1.36710568       1.31171675       0.00000000
Si      -1.37805256      -1.33503067      -1.34573503       0.00000000
Si       1.35653347       1.35483931      -1.35737593       0.00000000
Si       1.35514882      -1.35005005       1.36992127       0.00000000
Si      -0.00146610       2.70690932       2.64572335       0.00000000
Si      -0.00904095      -2.68250690      -2.68493482       0.00000000
Si      -2.73126287       0.01552437       2.67311886       0.00000000
Si       2.71401176      -2.70324407       0.01753429       0.00000000
Si      -0.00027693       2.72433962      -2.69622562       0.00000000
Si      -2.72868905      -2.69995349       0.00968616       0.00000000
