10
Lattice="16.290000149 0.0 0.0 0.0 16.290000149 0.0 0.0 0.0 29.1751946751" Properties=species:S:1:pos:R:3:initial_magmoms:R:1 pbc="T T T"
Si      -1.34102539      -1.33279894       1.37248868       0.00000000
Si       1.37256283      -1.36019872      -1.32014838       0.00000000
Si       1.35974260       1.30816846       1.38943947       0.00000000
Si      -1.35790183       1.33348312      -1.37715671       0.00000000
Si      -0.06905331       2.75289600       2.51049633       0.00000000
Si      -0.00128691      -2.72347625      -2.65295880       0.00000000
Si      -2.77827582       0.03898197       2.60484891       0.00000000
Si       2.72655506       0.01413972      -2.66214899       0.00000000
Si      -2.72398124      -2.68286528       0.03127581       0.00000000
Si       2.70901073       2.69925302       0.04425877       0.00000000
