10
Lattice="16.290000149 0.0 0.0 0.0 16.290000149 0.0 0.0 0.0 29.1751946751" Properties=species:S:1:pos:R:3:initial_magmoms:R:1 pbc="T T T"
Si      -1.40426513       1.16177023      -1.46444890       0.00000000
Si      -1.46167109      -1.17698509       1.41587512       0.00000000
Si       1.46536012      -1.26705250      -1.34739802       0.00000000
Si       1.22592155       1.48160809       1.39798780       0.00000000
H       -2.28700395       1.91164781      -0.47861907       0.00000000
Si       2.65025075       0.42694461      -2.54048843       0.00000000
Si      -0.07333954      -2.52910397       2.77918236       0.00000000
Si      -2.85656751      -2.49484610       0.04600928       0.00000000
Si       2.61276746       0.14722902       2.76838462       0.00000000
Si      -0.27002500       2.79041187      -2.67510277       0.00000000
