10
Lattice="16.290000149 0.0 0.0 0.0 16.290000149 0.0 0.0 0.0 29.1751946751" Properties=species:S:1:pos:R:3:initial_magmoms:R:1 pbc="T T T"
Si       1.35270044       1.34745994      -1.36671199       0.00000000
Si       1.35041984      -1.36142047       1.35723006       0.00000000
Si      -1.33275192       1.34752510       1.38984792       0.00000000
Si      -1.36188148      -1.35400852      -1.35682160       0.00000000
Si       2.68132914       2.69172704       0.04542578       0.00000000
Si      -2.70178286       2.70329294       0.04895598       0.00000000
Si      -2.70994415      -2.70150104       0.01733007       0.00000000
Si       2.69032122       0.00104256       2.72219154       0.00000000
Si      -2.68062215      -0.00757485       2.74582345       0.00000000
Si      -0.00793160      -2.71971326      -2.70891683       0.00000000
