10
Lattice="16.290000149 0.0 0.0 0.0 16.290000149 0.0 0.0 0.0 29.1751946751" Properties=species:S:1:pos:R:3:initial_magmoms:R:1 pbc="T T T"
H        1.20221830       0.36908253       0.88263716       0.00000000
Si       0.84918142       1.48781458      -1.63025153       0.00000000
Si      -0.77140970      -2.10603638       1.17228850       0.00000000
Si       0.54796302      -2.38697372      -0.73585676       0.00000000
Si      -2.19962243       1.42677595       1.04657258       0.00000000
H        2.60543891      -1.66610864       1.35019883       0.00000000
Si      -3.41743026      -0.16664670      -0.36375633       0.00000000
Si      -0.23509728      -1.15875658       3.24716999       0.00000000
H       -1.88645369      -1.57258774      -2.46445787       0.00000000
Si       1.27858582       3.30025629      -0.14435886       0.00000000
