10
Lattice="16.290000149 0.0 0.0 0.0 16.290000149 0.0 0.0 0.0 29.1751946751" Properties=species:S:1:pos:R:3:initial_magmoms:R:1 pbc="T T T"
Si      -1.39108456       1.35454609       1.31302964       0.00000000
Si       1.34025976       1.34845363      -1.37196353       0.00000000
Si      -1.39975084      -1.37044513      -1.31498437       0.00000000
Si       1.35325918      -1.30908070       1.42695877       0.00000000
Si       2.58361031      -2.73982164       0.00962781       0.00000000
Si       2.68397300       2.67638186       0.03495188       0.00000000
Si      -2.89111665      -0.00737937       2.47464001       0.00000000
Si      -0.05251896       2.64233576       2.74453974       0.00000000
Si       2.66292632      -0.02417436      -2.74462726       0.00000000
Si      -2.73429281       2.70023042      -0.07022469       0.00000000
