10
Lattice="16.290000149 0.0 0.0 0.0 16.290000149 0.0 0.0 0.0 29.1751946751" Properties=species:S:1:pos:R:3:initial_magmoms:R:1 pbc="T T T"
Si       1.36718713       1.33354014      -1.32281208       0.00000000
Si      -1.33204960       1.40295183       1.30631934       0.00000000
Si       1.38495952      -1.34782647       1.32108199       0.00000000
Si      -1.32672277      -1.29634474      -1.44669579       0.00000000
Si      -2.65256751       0.02118352       2.67454845       0.00000000
Si       0.01733256      -2.70903517       2.64414789       0.00000000
Si       0.06403599       2.74513381       2.63594966       0.00000000
Si      -2.67724035      -2.70743875      -0.13712341       0.00000000
Si      -2.62581608       2.76093511      -0.12148551       0.00000000
Si       2.74782981       0.02006276       2.66165301       0.00000000
