10
Lattice="16.290000149 0.0 0.0 0.0 16.290000149 0.0 0.0 0.0 29.1751946751" Properties=species:S:1:pos:R:3:initial_magmoms:R:1 pbc="T T T"
Si      -1.22763070       1.31970178      -1.51506786       0.00000000
Si       1.33986880       1.45696132       1.29508689       0.00000000
Si      -1.62175096      -1.02804562       1.39078153       0.00000000
Si       1.77811868      -1.54919530      -0.63461883       0.00000000
H       -0.85551823      -1.74736316      -1.75748455       0.00000000
H       -0.20453724      -2.17002350      -1.71614330       0.00000000
H        1.34307793       0.61279723      -2.84752818       0.00000000
Si      -0.05769918      -2.31287051       2.51300539       0.00000000
Si       0.03080439       1.07186572      -3.45373037       0.00000000
Si       1.01882548      -3.42130728       0.64766015       0.00000000
