10
Lattice="16.290000149 0.0 0.0 0.0 16.290000149 0.0 0.0 0.0 29.1751946751" Properties=species:S:1:pos:R:3:initial_magmoms:R:1 pbc="T T T"
Si      -1.23701374       1.36695907       1.41788529       0.00000000
Si       1.32292720      -1.37396377       1.33418165       0.00000000
Si       1.34921915       1.41017644      -1.30541491       0.00000000
Si      -1.38790801      -1.35933535      -1.32989290       0.00000000
H       -1.88309144       0.54108864       2.49541275       0.00000000
Si       2.61091724       0.03644073       2.65237530       0.00000000
Si      -2.81628039       2.45192195       0.09586969       0.00000000
Si      -0.09014886       2.75915136      -2.59207017       0.00000000
Si       2.68787120       0.04668714      -2.67761184       0.00000000
Si      -0.00464265      -2.70366761      -2.66527073       0.00000000
