10
Lattice="16.290000149 0.0 0.0 0.0 16.290000149 0.0 0.0 0.0 29.1751946751" Properties=species:S:1:pos:R:3:initial_magmoms:R:1 pbc="T T T"
Si      -1.39608559      -1.34218198      -1.32963032       0.00000000
Si      -1.35703846       1.35583300       1.35699665       0.00000000
Si       1.33112107      -1.36762696       1.37318889       0.00000000
Si       1.36365220       1.34503273      -1.36881261       0.00000000
Si      -0.06403599      -2.74513381      -2.63594966       0.00000000
Si       2.68379381      -2.72507105       0.02570335       0.00000000
Si       2.70813107       2.70389567      -0.00583504       0.00000000
Si      -2.70113941       2.71510319      -0.00332597       0.00000000
Si       2.70379793      -0.02010186       2.71807784       0.00000000
Si      -0.01006722       2.71943633       2.70789569       0.00000000
