10
Lattice="16.290000149 0.0 0.0 0.0 16.290000149 0.0 0.0 0.0 29.1751946751" Properties=species:S:1:pos:R:3:initial_magmoms:R:1 pbc="T T T"
Si      -0.45015786      -1.28397781       0.66461093       0.00000000
H        0.52129629      -1.54412911      -1.81644762       0.00000000
Si       1.55398456      -0.43657200      -2.03202313       0.00000000
Si       2.72541965      -0.60268114      -0.01945985       0.00000000
Si      -1.26928423      -0.31004757       2.61158838       0.00000000
Si      -2.32733603      -1.99593227      -0.60719415       0.00000000
Si       1.55794303      -2.64831419       0.58210348       0.00000000
Si      -2.76558591       1.01022436       1.32251157       0.00000000
Si      -1.85916143       2.85254193       0.15258627       0.00000000
Si       0.29022264       1.20940219      -3.17714952       0.00000000
