10
Lattice="16.290000149 0.0 0.0 0.0 16.290000149 0.0 0.0 0.0 29.1751946751" Properties=species:S:1:pos:R:3:initial_magmoms:R:1 pbc="T T T"
Si       0.88273882      -0.74987758      -0.98582983       0.00000000
Si      -1.07869123       1.69819994       0.81902357       0.00000000
Si      -1.93795616      -0.28926153       1.88283286       0.00000000
Si      -1.32458878       2.23340789      -1.48475483       0.00000000
Si       2.28700395      -1.91164781       0.47861907       0.00000000
Si      -0.71118883      -1.86880511      -2.32438776       0.00000000
Si       2.01697895       0.87876406      -2.19648371       0.00000000
Si       0.85558339       2.44780058       1.96187138       0.00000000
Si      -0.50932314      -1.65724688       3.21309920       0.00000000
Si      -3.24517980      -1.72833644       0.50581035       0.00000000
