10
Lattice="16.290000149 0.0 0.0 0.0 16.290000149 0.0 0.0 0.0 29.1751946751" Properties=species:S:1:pos:R:3:initial_magmoms:R:1 pbc="T T T"
Si       0.61543621      -1.30696789       0.43307659       0.00000000
Si      -1.51676028       1.47359341       0.63348100       0.00000000
H        2.01414449       0.34902954      -1.41003716       0.00000000
Si       1.10516248       1.24805836      -2.21550593       0.00000000
Si      -0.03808602       2.67634928      -0.75286590       0.00000000
Si      -2.83451232      -0.22784823      -0.50020871       0.00000000
Si      -1.61972775      -1.51465399      -2.10726596       0.00000000
Si      -0.21908421       1.62541621       2.65395076       0.00000000
Si      -0.23995170      -2.96880366      -0.95443732       0.00000000
Si       2.92193733      -1.21797073       0.08527909       0.00000000
