10
Lattice="10.86 0.0 0.0 0.0 10.86 0.0 0.0 0.0 10.86" Properties=species:S:1:pos:R:3:initial_magmoms:R:1 pbc="T T T"
Si       1.47397350      -1.22867868      -1.46757696       0.00000000
Si      -1.24102650       1.48632132      -1.46757696       0.00000000
Si       1.47397350       1.48632132       1.24742304       0.00000000
Si      -2.60048130      -2.60969058      -0.22509522       0.00000000
Si      -2.58886110       2.65288080       0.00020634       0.00000000
Si       0.19298220      -2.59248834       2.74054272       0.00000000
Si       0.23110080       2.68321278       2.70840798       0.00000000
Si       0.11647350      -2.58617868      -2.82507696       0.00000000
Si       2.83147350      -2.58617868      -0.11007696       0.00000000
Si      -2.59852650       0.12882132      -2.82507696       0.00000000
