10
Lattice="10.86 0.0 0.0 0.0 10.86 0.0 0.0 0.0 10.86" Properties=species:S:1:pos:R:3:initial_magmoms:R:1 pbc="T T T"
Si       1.35945480      -1.33398810      -1.24248174       0.00000000
Si      -1.35554520       1.38101190      -1.24248174       0.00000000
Si      -1.35554520      -1.33398810       1.47251826       0.00000000
Si       2.60048130       2.60969058       0.22509522       0.00000000
Si       0.00195480      -2.69148810      -2.59998174       0.00000000
Si      -2.71304520       0.02351190      -2.59998174       0.00000000
Si       2.71695480       0.02351190      -2.59998174       0.00000000
Si       0.00195480       2.73851190      -2.59998174       0.00000000
Si      -2.73717612       2.63323506       0.26586366       0.00000000
Si      -2.71304520      -2.69148810       0.11501826       0.00000000
