10
Lattice="16.28999089631971 0.0 0.0 0.0 16.28999089631971 0.0 0.0 0.0 34.385447050020396" Properties=species:S:1:pos:R:3:initial_magmoms:R:1 pbc="T T T"
Si      -2.18601279       0.78929937       0.36809642       0.00000000
Si       1.48545089       1.74439903      -0.58008282       0.00000000
Si       0.11658590      -1.46429181      -1.86609925       0.00000000
Si       0.28800557      -1.13409351       2.12395587       0.00000000
Si      -3.07865592      -1.43120682       0.65157020       0.00000000
Si      -1.96955127      -1.64165733       2.71459502       0.00000000
Si      -2.00680650       2.13901125       2.42104629       0.00000000
Si       3.69105173       0.84297492      -0.66755944       0.00000000
Si       0.26448281      -0.27484488      -3.85787739       0.00000000
Si       1.23421022      -3.27629367       1.76283970       0.00000000
