10
Lattice="16.28999089631971 0.0 0.0 0.0 16.28999089631971 0.0 0.0 0.0 34.385447050020396" Properties=species:S:1:pos:R:3:initial_magmoms:R:1 pbc="T T T"
Si      -1.35819504      -1.35459326      -1.35544069       0.00000000
Si       1.35759231      -1.35660341       1.35722874       0.00000000
Si       1.35770634       1.35792951      -1.35750382       0.00000000
Si      -1.35736425       1.35866256       1.35753821       0.00000000
Si      -2.70539433      -0.00911100      -2.71277259       0.00000000
Si      -2.71466334      -2.71296496      -0.00171927       0.00000000
Si       2.71500543      -2.71353511      -0.00092841       0.00000000
Si       0.00057015      -2.71545733       2.71431994       0.00000000
Si       2.71604799       0.00094645       2.71414801       0.00000000
Si      -2.71588509      -0.00013358       2.71480133       0.00000000
