10
Lattice="16.28999089631971 0.0 0.0 0.0 16.28999089631971 0.0 0.0 0.0 34.385447050020396" Properties=species:S:1:pos:R:3:initial_magmoms:R:1 pbc="T T T"
Si      -1.58403960       1.56654414       0.68182941       0.00000000
Si      -1.29455001      -1.94478165       0.31552104       0.00000000
Si       1.57415157       0.35116353       1.75101110       0.00000000
Si       1.35488817       0.24387759      -1.94597669       0.00000000
Si      -0.38522592       2.88743508       2.20575889       0.00000000
Si       2.50716132       2.28685536      -1.39233630       0.00000000
Si       2.66883957      -1.74946455      -1.91389505       0.00000000
Si       3.38646294       1.40582700       0.64472749       0.00000000
Si      -1.20868542      -2.33485873       2.65001911       0.00000000
Si      -0.16272081       0.17185950      -3.80182908       0.00000000
