10
Lattice="16.28999089631971 0.0 0.0 0.0 16.28999089631971 0.0 0.0 0.0 34.385447050020396" Properties=species:S:1:pos:R:3:initial_magmoms:R:1 pbc="T T T"
Si       1.19195559      -1.43613454      -1.49693689       0.00000000
Si      -2.29097673      -0.70792430      -0.00453888       0.00000000
Si       0.40959576       2.13799734      -1.26376904       0.00000000
Si       0.63884493      -1.78565183       2.19805655       0.00000000
Si      -2.04545385      -3.07754657      -0.51230906       0.00000000
Si      -0.23030802       1.48454028      -3.46416380       0.00000000
Si      -0.93507858       3.69238914      -0.06622641       0.00000000
Si       0.10767690      -3.57717716      -1.58895240       0.00000000
Si       3.23964117      -2.17973951      -0.38387935       0.00000000
Si       1.15305507      -0.50404681      -3.74272046       0.00000000
