10
Lattice="16.28999089631971 0.0 0.0 0.0 16.28999089631971 0.0 0.0 0.0 34.385447050020396" Properties=species:S:1:pos:R:3:initial_magmoms:R:1 pbc="T T T"
Si      -0.34766118      -2.24043442       0.48614172       0.00000000
Si       1.64711448       1.27839196       1.03280186       0.00000000
Si      -2.06148973       1.09252306       0.53153054       0.00000000
Si       0.80009964       0.36825337      -2.22841891       0.00000000
Si      -0.84926286       2.25825175      -2.42916126       0.00000000
Si       0.45871011       3.36378889       0.75259470       0.00000000
Si      -2.54893605      -2.49633403      -0.44687352       0.00000000
Si      -1.66895122       3.23188876      -0.36641153       0.00000000
Si       1.70072487       0.42083749       3.26073938       0.00000000
Si      -3.68506583      -0.42929037      -0.31070707       0.00000000
