10
Lattice="16.28999089631971 0.0 0.0 0.0 16.28999089631971 0.0 0.0 0.0 34.385447050020396" Properties=species:S:1:pos:R:3:initial_magmoms:R:1 pbc="T T T"
Si      -2.29348539       0.17109387      -0.34650234       0.00000000
Si       1.11008205      -2.02756743       0.38436074       0.00000000
Si      -0.04702923       1.54044756       1.85062579       0.00000000
Si       1.12440096       2.10230595      -0.59153318       0.00000000
Si       0.39034098      -1.87380612      -1.91757430       0.00000000
Si      -0.82344321       3.51104886       0.66532439       0.00000000
Si      -2.81483055       2.34237168       0.25190793       0.00000000
Si       3.29512491       0.76383810      -1.69018321       0.00000000
Si       1.82974167      -0.54379278      -3.27170834       0.00000000
Si      -3.47392395      -1.25037153       1.00838818       0.00000000
