10
Lattice="16.28999089631971 0.0 0.0 0.0 16.28999089631971 0.0 0.0 0.0 34.385447050020396" Properties=species:S:1:pos:R:3:initial_magmoms:R:1 pbc="T T T"
Si      -2.02211028      -0.32770593      -0.94752591       0.00000000
Si       1.22298804       1.94492826      -0.67285480       0.00000000
Si      -0.09739791      -0.56347110       2.33944958       0.00000000
Si      -0.28911492      -1.51332471      -2.15338982       0.00000000
Si       2.82178638       1.52919117       0.97792266       0.00000000
Si       1.80672390       0.78508026       2.98816579       0.00000000
Si      -2.51858061       1.71362655      -1.99280970       0.00000000
Si       1.04198985      -0.13854645      -3.58289681       0.00000000
Si       0.96949935      -3.40167780      -1.44783444       0.00000000
Si      -0.05007546       3.90326319      -0.44322866       0.00000000
