10
Lattice="16.28999089631971 0.0 0.0 0.0 16.28999089631971 0.0 0.0 0.0 34.385447050020396" Properties=species:S:1:pos:R:3:initial_magmoms:R:1 pbc="T T T"
Si       1.08014103      -0.73498851       1.86823115       0.00000000
Si      -2.31044328      -0.51233679       0.19871361       0.00000000
Si       0.78908760      -0.46547046      -2.19764392       0.00000000
Si       0.88571988       2.25502470       0.01227561       0.00000000
Si       3.14038620       1.61846037      -0.20961380       0.00000000
Si       3.05401662      -0.07455933      -1.81166706       0.00000000
Si       3.02218596       0.49373361       1.90333871       0.00000000
Si      -0.24451290       1.22344416      -3.45457025       0.00000000
Si      -2.95034706      -1.16579385      -2.00168115       0.00000000
Si       0.50438727       3.21800805      -2.11848858       0.00000000
