10
Lattice="16.28999089631971 0.0 0.0 0.0 16.28999089631971 0.0 0.0 0.0 34.385447050020396" Properties=species:S:1:pos:R:3:initial_magmoms:R:1 pbc="T T T"
Si       1.36102950       1.34887716      -1.35518280       0.00000000
Si       1.35602847      -1.35404109       1.35815715       0.00000000
Si      -1.36049193       1.35472527       1.35612840       0.00000000
Si      -1.35422028      -1.36832742      -1.34935103       0.00000000
Si      -2.56971492      -0.02414178      -2.79905948       0.00000000
Si       2.71163340      -2.71480995      -0.00591430       0.00000000
Si       2.71428867       2.71344159       0.00230383       0.00000000
Si       2.71274112       0.00096111       2.71507642       0.00000000
Si      -2.71427238      -2.71360449       0.00385117       0.00000000
Si      -0.00245979      -2.71397916       2.71480133       0.00000000
