10
Lattice="16.28999089631971 0.0 0.0 0.0 16.28999089631971 0.0 0.0 0.0 34.385447050020396" Properties=species:S:1:pos:R:3:initial_magmoms:R:1 pbc="T T T"
Si       0.22489811      -0.03551220      -2.30778057       0.00000000
Si      -0.13197995      -2.32085259       0.66835031       0.00000000
Si      -2.30531423       0.89329473      -0.24802237       0.00000000
Si       2.34938127       0.77872716       1.33329645       0.00000000
Si       1.27523333      -0.11398113       3.28460289       0.00000000
Si       0.17085441      -2.22228343       2.98541495       0.00000000
Si      -1.39867799      -1.55732563      -3.15001818       0.00000000
Si       2.28638784      -1.12803526      -2.83931111       0.00000000
Si       0.61743661       2.10385350      -3.20572263       0.00000000
Si       2.58513015       2.91533985       0.11725444       0.00000000
