10
Lattice="16.28999089631971 0.0 0.0 0.0 16.28999089631971 0.0 0.0 0.0 34.385447050020396" Properties=species:S:1:pos:R:3:initial_magmoms:R:1 pbc="T T T"
Si      -1.99138734      -1.16867718      -0.41341646       0.00000000
Si       0.77641398      -1.97060130       1.18530141       0.00000000
Si      -0.75165318       1.49257125       1.85860322       0.00000000
Si       0.55420209       0.36670419      -2.54029509       0.00000000
Si       1.94784417      -1.40874291      -1.25685756       0.00000000
Si      -1.32991560       1.89151335      -2.71163787       0.00000000
Si      -2.99680614       1.56028878       1.23079338       0.00000000
Si       0.82344321      -3.51104886      -0.66532439       0.00000000
Si      -1.47004218      -3.33995499      -1.01182673       0.00000000
Si       0.47706894       3.46349835       1.56240682       0.00000000
