10
Lattice="16.28999089631971 0.0 0.0 0.0 16.28999089631971 0.0 0.0 0.0 34.385447050020396" Properties=species:S:1:pos:R:3:initial_magmoms:R:1 pbc="T T T"
Si       1.24364376      -1.38779397       1.39489458       0.00000000
Si       1.85725548       0.88011612      -1.19232911       0.00000000
Si      -1.48626702       1.33419987       1.35111500       0.00000000
Si      -0.86460804      -1.90889478      -1.33754447       0.00000000
Si       0.59688189       2.11463748      -2.79978643       0.00000000
Si       2.54879856      -2.74281246      -0.04320190       0.00000000
Si       2.59690293      -0.02322954       2.75238121       0.00000000
Si       2.69522937       2.66284485       0.09219431       0.00000000
Si      -0.12269628       2.69610903       2.74622621       0.00000000
Si      -2.68710066      -2.76081291      -0.04898210       0.00000000
