10
Lattice="16.28999089631971 0.0 0.0 0.0 16.28999089631971 0.0 0.0 0.0 34.385447050020396" Properties=species:S:1:pos:R:3:initial_magmoms:R:1 pbc="T T T"
Si       1.35646830       1.35837171      -1.35372142       0.00000000
Si      -1.35778779       1.35664746       1.35860416       0.00000000
Si      -1.35718506      -1.35861858      -1.35815715       0.00000000
Si       1.35739683      -1.35850455       1.35832907       0.00000000
Si       0.00926901       2.70385397      -2.71105332       0.00000000
Si       2.71466334       2.71296496       0.00171927       0.00000000
Si       2.71132389       0.00122175      -2.71744901       0.00000000
Si      -2.71492887       2.71438871       0.00130665       0.00000000
Si      -0.00122175       2.71283139       2.71652061       0.00000000
Si       2.71484253      -2.71593396       0.00096279       0.00000000
