10
Lattice="16.28999089631971 0.0 0.0 0.0 16.28999089631971 0.0 0.0 0.0 34.385447050020396" Properties=species:S:1:pos:R:3:initial_magmoms:R:1 pbc="T T T"
Si       1.35702216      -1.35402480       1.35509684       0.00000000
Si      -1.35723393      -1.35596331      -1.35674734       0.00000000
Si       1.35783666       1.35902583      -1.35688488       0.00000000
Si      -1.35570267       1.36150191       1.35719435       0.00000000
Si       0.00552231      -2.71063971       2.68718980       0.00000000
Si      -2.70950104      -0.00355122       2.69912156       0.00000000
Si      -2.71445809      -2.71230129       0.00003439       0.00000000
Si       2.71497285      -2.71228500       0.00092841       0.00000000
Si       0.00019548      -2.71459818      -2.71370100       0.00000000
Si       2.71528236       0.00159642      -2.71425117       0.00000000
