10
Lattice="16.28999089631971 0.0 0.0 0.0 16.28999089631971 0.0 0.0 0.0 34.385447050020396" Properties=species:S:1:pos:R:3:initial_magmoms:R:1 pbc="T T T"
Si       1.28225106       1.52834409       1.27742007       0.00000000
Si       1.51185861      -1.19378007      -1.42627476       0.00000000
Si      -1.20738222       1.52013393      -1.41709384       0.00000000
Si      -0.89117703      -1.89905562       1.23949290       0.00000000
Si      -2.21917041       0.60911568       2.50989834       0.00000000
Si      -2.62886391      -2.67149484      -0.16205870       0.00000000
Si       2.78576919      -2.53130310       0.07110914       0.00000000
Si       0.15949539      -2.54941758      -2.79870187       0.00000000
Si      -2.55322944       0.16610913      -2.79660436       0.00000000
Si       0.99294066      -3.42386478       1.41083568       0.00000000
