10
Lattice="16.28999089631971 0.0 0.0 0.0 16.28999089631971 0.0 0.0 0.0 34.385447050020396" Properties=species:S:1:pos:R:3:initial_magmoms:R:1 pbc="T T T"
Si       0.27417699      -1.98554575      -1.24695455       0.00000000
Si      -1.06109802      -0.35264592       2.08358733       0.00000000
Si       2.29982220       0.68396823       0.24038879       0.00000000
Si      -1.60820582       1.39059585      -1.17024057       0.00000000
Si       0.43209225      -0.82554462      -3.32314900       0.00000000
Si      -0.70713261       1.90156428       3.05882792       0.00000000
Si       2.79754686       2.17116378      -1.53445143       0.00000000
Si       3.68318529      -1.30461886      -0.03816787       0.00000000
Si      -1.21127390      -3.72994478      -0.66687173       0.00000000
Si      -3.21808040      -1.59093353       1.75417456       0.00000000
