10
Lattice="16.28999089631971 0.0 0.0 0.0 16.28999089631971 0.0 0.0 0.0 34.385447050020396" Properties=species:S:1:pos:R:3:initial_magmoms:R:1 pbc="T T T"
Si       1.25924958      -1.98403145       0.00192559       0.00000000
Si       1.46513889       1.83772377       0.15126167       0.00000000
Si      -0.95516415       0.61224336       2.10311827       0.00000000
Si      -0.81940329       0.49893012      -2.19413660       0.00000000
Si       1.45720566       0.55586367      -2.92035765       0.00000000
Si      -2.12939622      -2.62660679       0.12619466       0.00000000
Si      -1.91409129       2.59955820       1.47076955       0.00000000
Si      -0.21654297      -3.36175820      -1.18523264       0.00000000
Si       2.54526363       1.35676152       2.15916658       0.00000000
Si      -0.10177992       3.65422167       0.36448594       0.00000000
