10
Lattice="16.28999089631971 0.0 0.0 0.0 16.28999089631971 0.0 0.0 0.0 34.385447050020396" Properties=species:S:1:pos:R:3:initial_magmoms:R:1 pbc="T T T"
Si      -1.31395140       1.99334214      -0.03208164       0.00000000
Si       2.27660895       0.05693355      -0.72622105       0.00000000
Si       0.81940329      -0.49893012       2.19413660       0.00000000
Si      -0.80844012      -1.40892047      -1.76046710       0.00000000
Si       2.28454218       1.33879365       2.34539827       0.00000000
Si      -3.04965090      -1.81591960      -1.10707447       0.00000000
Si      -2.66883957       1.74946455       1.91389505       0.00000000
Si      -0.01166364      -3.53783681      -1.25197483       0.00000000
Si      -2.83156038       1.92132405      -1.88793403       0.00000000
Si       2.07865287      -2.48296157       2.19606219       0.00000000
