10
Lattice="16.28999089631971 0.0 0.0 0.0 16.28999089631971 0.0 0.0 0.0 34.385447050020396" Properties=species:S:1:pos:R:3:initial_magmoms:R:1 pbc="T T T"
Si      -1.66102614      -0.53072820      -1.53950610       0.00000000
Si       1.83940164       0.21378996      -1.48345779       0.00000000
Si      -0.05714532       2.01455172       1.25720142       0.00000000
Si       0.15014493      -1.98867994       1.30847015       0.00000000
Si       2.56746690      -1.80720120       1.24224374       0.00000000
Si       2.24823177       2.28799566       1.21497607       0.00000000
Si       2.68260462      -1.98379946      -1.08578987       0.00000000
Si       0.75927690       0.69475221      -3.49136270       0.00000000
Si      -3.32575011      -1.55468502      -0.30506786       0.00000000
Si      -2.61995328       1.45658664      -2.17185482       0.00000000
