10
Lattice="16.28999089631971 0.0 0.0 0.0 16.28999089631971 0.0 0.0 0.0 34.385447050020396" Properties=species:S:1:pos:R:3:initial_magmoms:R:1 pbc="T T T"
Si      -2.05446222       0.83074113      -0.98479975       0.00000000
Si       0.40835772       0.92305656       2.35739880       0.00000000
Si       0.70209900      -2.23495542      -1.17316334       0.00000000
Si       2.54205450       1.08115101      -1.18358213       0.00000000
Si       1.68783948      -0.63526113      -2.61085407       0.00000000
Si      -0.90430677       2.15014968      -2.55755660       0.00000000
Si       0.99694800       3.03443604      -1.39281770       0.00000000
Si       3.67332984       0.49775724       0.89959257       0.00000000
Si       2.45974113      -0.19425825       2.92200815       0.00000000
Si      -1.56962295       0.15433146       3.49923697       0.00000000
