10
Lattice="16.28999089631971 0.0 0.0 0.0 16.28999089631971 0.0 0.0 0.0 34.385447050020396" Properties=species:S:1:pos:R:3:initial_magmoms:R:1 pbc="T T T"
Si      -1.35488817      -0.24387759       1.94597669       0.00000000
Si       1.31395140      -1.99334214       0.03208164       0.00000000
Si      -1.51760898      -0.07201809      -1.85585239       0.00000000
Si       1.15227315       2.04297777       0.55364039       0.00000000
Si       2.03157477       1.16194941       2.59070418       0.00000000
Si       0.21926340       0.10728594       3.69698779       0.00000000
Si      -0.60116616       3.71265390       0.74506428       0.00000000
Si       0.50551128      -3.40226261      -1.72838546       0.00000000
Si       2.13335469      -2.49227226       2.22621824       0.00000000
Si      -2.62769103       1.95554934      -2.24021313       0.00000000
