10
Lattice="16.28999089631971 0.0 0.0 0.0 16.28999089631971 0.0 0.0 0.0 34.385447050020396" Properties=species:S:1:pos:R:3:initial_magmoms:R:1 pbc="T T T"
Si       0.95892714      -1.98731484       0.63234872       0.00000000
Si      -0.48596328       1.41709968       1.82892857       0.00000000
Si       1.81231137       1.05466347      -1.10628361       0.00000000
Si      -1.57415157      -0.35116353      -1.75101110       0.00000000
Si      -1.95937749       2.53627155       0.45474779       0.00000000
Si       1.91409129      -2.59955820      -1.47076955       0.00000000
Si      -3.15819117       1.21538061      -1.06918169       0.00000000
Si      -0.70579683      -3.01127166       1.86678696       0.00000000
Si       1.58570118       2.41243497       2.31507029       0.00000000
Si       2.61995328      -1.45658664       2.17185482       0.00000000
