10
Lattice="16.28999089631971 0.0 0.0 0.0 16.28999089631971 0.0 0.0 0.0 34.385447050020396" Properties=species:S:1:pos:R:3:initial_magmoms:R:1 pbc="T T T"
Si      -2.26492902      -0.39091113      -0.38597686       0.00000000
Si       0.08636958       1.69301970       1.60205326       0.00000000
Si       0.81107910       0.54263619      -2.14716606       0.00000000
Si       0.86333742      -2.00762847       0.94841993       0.00000000
Si      -3.05401662       0.07455933       1.81166706       0.00000000
Si      -0.52463574      -3.50323455      -0.30871272       0.00000000
Si      -2.16829674       2.32958403       1.82394267       0.00000000
Si       3.24897534      -1.59363441       0.78966223       0.00000000
Si       2.25453600       2.51458956       1.56381662       0.00000000
Si      -0.03183066       0.56829294       3.71500578       0.00000000
