10
Lattice="16.28999089631971 0.0 0.0 0.0 16.28999089631971 0.0 0.0 0.0 34.385447050020396" Properties=species:S:1:pos:R:3:initial_magmoms:R:1 pbc="T T T"
Si       2.30537709       0.27344394      -0.04222535       0.00000000
Si      -0.81107910      -0.54263619       2.14716606       0.00000000
Si      -0.97710678       1.85446989      -1.11398595       0.00000000
Si       0.05714532      -2.01455172      -1.25720142       0.00000000
Si      -3.04877124       0.85913460      -1.60012767       0.00000000
Si      -3.07600812      -0.93354732       1.76118920       0.00000000
Si       1.89654696      -1.80076176      -2.74065920       0.00000000
Si       3.30828723      -1.69453467       0.80998404       0.00000000
Si      -1.47292551       3.48718401       0.55047693       0.00000000
Si       3.12510618       0.15490161      -2.22511791       0.00000000
