10
Lattice="16.28999089631971 0.0 0.0 0.0 16.28999089631971 0.0 0.0 0.0 34.385447050020396" Properties=species:S:1:pos:R:3:initial_magmoms:R:1 pbc="T T T"
Si      -1.35620766       1.35221661      -1.35557824       0.00000000
Si       1.35731538       1.35567009       1.35767575       0.00000000
Si      -1.35775521      -1.36026387       1.35719435       0.00000000
Si       1.35389448      -1.36081773      -1.36334935       0.00000000
Si       0.03279177       2.67903711      -2.69998807       0.00000000
Si      -2.70946683      -0.01234782      -2.71306487       0.00000000
Si      -2.71283886       2.71124244       0.00013754       0.00000000
Si      -0.00076563       2.71282257       2.71407924       0.00000000
Si       2.71595025       2.71208952       0.00072209       0.00000000
Si       2.71482624      -0.00327429       2.71397608       0.00000000
