10
Lattice="16.28999089631971 0.0 0.0 0.0 16.28999089631971 0.0 0.0 0.0 34.385447050020396" Properties=species:S:1:pos:R:3:initial_magmoms:R:1 pbc="T T T"
Si       1.25379243       1.45800387       1.42132325       0.00000000
Si      -1.69285680      -2.06881371      -0.19022040       0.00000000
Si      -0.52087275       2.70658350      -1.24031815       0.00000000
Si       3.03075450       0.11132586       0.25111706       0.00000000
Si      -1.29367035       0.59919507      -2.81338446       0.00000000
Si      -0.87900840       2.29848642       2.12907930       0.00000000
Si      -3.08649888      -0.29336661      -1.47365793       0.00000000
Si       0.47786715      -3.40728156      -1.28887043       0.00000000
Si      -3.64070097      -0.66007080       1.06663716       0.00000000
Si       1.62802260      -2.08787301      -2.86162727       0.00000000
