10
Lattice="16.28999089631971 0.0 0.0 0.0 16.28999089631971 0.0 0.0 0.0 34.385447050020396" Properties=species:S:1:pos:R:3:initial_magmoms:R:1 pbc="T T T"
Si       1.12410774      -1.74368160       1.16384488       0.00000000
Si       1.45310058       0.56083212      -1.82394267       0.00000000
Si      -2.33899965      -0.29584269      -0.56326832       0.00000000
Si      -0.14634936       2.35351404       0.57781338       0.00000000
Si      -0.16272081       1.85683194      -2.86063010       0.00000000
Si      -1.96757136       0.36320184      -2.89776640       0.00000000
Si      -0.76367520      -2.48093442       2.45371249       0.00000000
Si      -1.86839784      -0.44667180       3.22143679       0.00000000
Si       3.12191334      -0.70749099       1.95698004       0.00000000
Si      -1.09470429       3.32677638      -1.36943558       0.00000000
