10
Lattice="16.28999089631971 0.0 0.0 0.0 16.28999089631971 0.0 0.0 0.0 34.385447050020396" Properties=species:S:1:pos:R:3:initial_magmoms:R:1 pbc="T T T"
Si       1.82153151      -0.81143748      -1.25864561       0.00000000
Si      -2.19686940      -0.05717790      -0.90048659       0.00000000
Si       1.01001258       2.15881596      -0.39364482       0.00000000
Si       0.33508530      -1.85534955       1.58695804       0.00000000
Si       2.10505896       1.31110065      -2.27532069       0.00000000
Si      -0.79674390       3.32599446      -1.34381841       0.00000000
Si      -2.25463374       1.69137441      -2.46461268       0.00000000
Si      -0.06889041      -0.63584757       3.69241452       0.00000000
Si       2.90253591       2.22773895       1.27184963       0.00000000
Si      -3.83759820       0.90833040       0.76645204       0.00000000
