10
Lattice="16.28999089631971 0.0 0.0 0.0 16.28999089631971 0.0 0.0 0.0 34.385447050020396" Properties=species:S:1:pos:R:3:initial_magmoms:R:1 pbc="T T T"
Si       0.99799056       1.74360082       1.20905936       0.00000000
Si      -1.63867626      -1.06277589       1.33012715       0.00000000
Si      -1.24727643       1.23602234      -1.72102392       0.00000000
Si       1.70364078      -1.80092466      -0.25551534       0.00000000
Si       2.35613673       0.33199020       2.59300560       0.00000000
Si      -0.34800327      -2.42202978       2.64590421       0.00000000
Si      -2.47665015      -2.84550462       0.04560372       0.00000000
Si       0.40229784       2.78141066      -2.59826593       0.00000000
Si       2.14653330      -1.92757941      -2.62085718       0.00000000
Si      -2.54493783       2.95739153      -0.32593678       0.00000000
