10
Lattice="16.28999089631971 0.0 0.0 0.0 16.28999089631971 0.0 0.0 0.0 34.385447050020396" Properties=species:S:1:pos:R:3:initial_magmoms:R:1 pbc="T T T"
Si       1.35537687       1.35852084       1.35636910       0.00000000
Si       1.35663120      -1.35902583      -1.35571578       0.00000000
Si      -1.35944937      -1.35684297       1.35654103       0.00000000
Si      -1.36296801       1.36031274      -1.36187078       0.00000000
Si       2.71283886      -2.71124244      -0.00013754       0.00000000
Si       2.71207323       0.00158013       2.71394170       0.00000000
Si      -0.00298107      -2.71365336       2.71401047       0.00000000
Si       2.71308321       2.71598421       0.00027508       0.00000000
Si      -0.00203625       2.71545254       2.71452625       0.00000000
Si      -2.71689507       0.00058644       2.71390731       0.00000000
