10
Lattice="16.28999089631971 0.0 0.0 0.0 16.28999089631971 0.0 0.0 0.0 34.385447050020396" Properties=species:S:1:pos:R:3:initial_magmoms:R:1 pbc="T T T"
Si       1.95185151       0.50261166      -1.60896474       0.00000000
Si      -0.77279760      -2.10738843      -1.57306631       0.00000000
Si      -2.27631573       1.95225876      -0.36675538       0.00000000
Si       0.52087275      -2.70658350       1.24031815       0.00000000
Si      -1.87466949       1.47646044       1.92472647       0.00000000
Si      -0.35813565      -0.40809708       3.36939745       0.00000000
Si       1.77466518      -1.24857963       2.66164140       0.00000000
Si       1.63359378       1.92555945       2.66195087       0.00000000
Si       0.67691466       1.92907809      -3.07086284       0.00000000
Si      -0.65775762       3.25682712      -1.62038071       0.00000000
