10
Lattice="16.28999089631971 0.0 0.0 0.0 16.28999089631971 0.0 0.0 0.0 34.385447050020396" Properties=species:S:1:pos:R:3:initial_magmoms:R:1 pbc="T T T"
Si       1.47579255       1.37772675       1.18715822       0.00000000
Si      -0.61452396       0.32285151      -2.26087879       0.00000000
Si       1.15061157      -2.11688550      -0.10752335       0.00000000
Si      -1.91285325       0.73515141       1.31142730       0.00000000
Si      -1.83006747      -1.52518383       0.63210803       0.00000000
Si       1.53158580       0.20232180      -3.15758298       0.00000000
Si       3.46559976       0.70328817       0.12980514       0.00000000
Si       0.21654297       3.36175820       1.18523264       0.00000000
Si      -2.60625339      -2.01080502      -1.55343221       0.00000000
Si       3.14701623      -1.53389898       1.01860067       0.00000000
