10
Lattice="16.28999089631971 0.0 0.0 0.0 16.28999089631971 0.0 0.0 0.0 34.385447050020396" Properties=species:S:1:pos:R:3:initial_magmoms:R:1 pbc="T T T"
Si       1.08628236      -1.58894289      -1.33702040       0.00000000
Si      -1.18571000       1.45476216      -1.41080130       0.00000000
Si      -1.36422560      -1.34812782       1.35516905       0.00000000
Si       1.36205577       1.35878148       1.35279645       0.00000000
Si       1.98610938       0.37524015      -2.94416412       0.00000000
Si      -2.44126664      -0.09832644      -2.66812066       0.00000000
Si       0.52084017       2.39463000      -2.87793772       0.00000000
Si      -0.71563599      -3.52281024      -1.19565487       0.00000000
Si      -2.69314588      -2.71578735      -0.02033556       0.00000000
Si       0.00011403      -2.71419093       2.70490176       0.00000000
