10
Lattice="16.28999089631971 0.0 0.0 0.0 16.28999089631971 0.0 0.0 0.0 34.385447050020396" Properties=species:S:1:pos:R:3:initial_magmoms:R:1 pbc="T T T"
Si       1.72615356       0.12194694      -1.52719610       0.00000000
Si       0.74570733       1.83175578       1.25857684       0.00000000
Si      -2.07559035       0.13383864      -1.13097237       0.00000000
Si       0.04624731      -2.08969749       1.12227285       0.00000000
Si      -2.73018771       2.26575071      -0.35496117       0.00000000
Si      -0.79729776       1.78911671       3.04576145       0.00000000
Si       2.70757719      -1.98430119      -1.52839959       0.00000000
Si       1.23193125      -3.46845051      -0.41609853       0.00000000
Si      -3.15332046      -1.89736146      -0.77549542       0.00000000
Si      -2.20496553      -2.87062380       1.17175353       0.00000000
