10
Lattice="16.28999089631971 0.0 0.0 0.0 16.28999089631971 0.0 0.0 0.0 34.385447050020396" Properties=species:S:1:pos:R:3:initial_magmoms:R:1 pbc="T T T"
Si       0.98574048       1.59969429      -1.43769073       0.00000000
Si      -1.69701075      -1.14942240      -1.33577221       0.00000000
Si       1.79427834      -1.87165584      -0.17395607       0.00000000
Si      -0.70209900       2.23495542       1.17316334       0.00000000
Si       2.36146356       0.27697887      -2.84027390       0.00000000
Si      -0.36711144      -2.44997365      -2.84182125       0.00000000
Si       0.16656525      -1.59009948       3.42462051       0.00000000
Si       1.83995550       3.31610643      -0.01041880       0.00000000
Si      -2.55836079      -3.05496796      -0.04961823       0.00000000
Si       3.65111028      -1.05999030      -1.40041688       0.00000000
