10
Lattice="16.28999089631971 0.0 0.0 0.0 16.28999089631971 0.0 0.0 0.0 34.385447050020396" Properties=species:S:1:pos:R:3:initial_magmoms:R:1 pbc="T T T"
Si       1.15282701      -1.43673143       1.43294554       0.00000000
Si       0.11513772      -0.17659826      -2.32803361       0.00000000
Si       0.68367501       2.12721825       0.82494172       0.00000000
Si      -2.41732197      -0.18147875       0.06622641       0.00000000
Si      -2.56746690       1.80720120      -1.24224374       0.00000000
Si      -0.18671598       1.68548232       2.95178597       0.00000000
Si      -0.72806526       2.02099116      -2.72570153       0.00000000
Si      -1.43687574      -1.89128759      -2.71954653       0.00000000
Si       1.33203330      -0.08701955       3.48589541       0.00000000
Si      -3.16302930      -2.01323453      -1.19235043       0.00000000
