10
Lattice="16.28999089631971 0.0 0.0 0.0 16.28999089631971 0.0 0.0 0.0 34.385447050020396" Properties=species:S:1:pos:R:3:initial_magmoms:R:1 pbc="T T T"
Si      -1.42426728       1.29411018       1.32497861       0.00000000
Si       1.30371055      -1.44927243       1.31979672       0.00000000
Si       1.55558979       1.16818848      -1.32798837       0.00000000
Si      -1.81931607      -0.88619229      -1.45098213       0.00000000
Si      -0.16017957      -0.00679293      -3.14680455       0.00000000
Si       2.08067350      -0.63755802      -2.84314650       0.00000000
Si      -0.07607430       2.62000215       2.69017790       0.00000000
Si      -3.40720011       0.92536974      -1.30868953       0.00000000
Si       2.63263083      -0.08161290       2.69530133       0.00000000
Si      -2.50339833       2.87327907      -0.18874870       0.00000000
