10
Lattice="16.28999089631971 0.0 0.0 0.0 16.28999089631971 0.0 0.0 0.0 34.385447050020396" Properties=species:S:1:pos:R:3:initial_magmoms:R:1 pbc="T T T"
Si       1.34434540       1.34516304      -1.36671913       0.00000000
Si       1.28964672      -1.33696917       1.43985701       0.00000000
Si      -1.37572308       1.32271542       1.40258317       0.00000000
Si      -1.37238363      -1.37077092      -1.36149254       0.00000000
Si      -0.56718522      -2.14863471       2.66631783       0.00000000
Si      -2.36146356      -0.27697887       2.84027390       0.00000000
Si       2.66653032       2.70189198      -0.02063128       0.00000000
Si       2.67093513      -2.71876516      -0.00371363       0.00000000
Si       2.70040374      -0.01120752      -2.72064686       0.00000000
Si      -0.01166364       2.70207117      -2.72057809       0.00000000
