10
Lattice="16.28999089631971 0.0 0.0 0.0 16.28999089631971 0.0 0.0 0.0 34.385447050020396" Properties=species:S:1:pos:R:3:initial_magmoms:R:1 pbc="T T T"
Si      -2.05138341       1.11731481      -0.56460936       0.00000000
Si       1.00536993       1.50516342       1.59101552       0.00000000
Si      -0.04367349      -2.33166915       0.63045752       0.00000000
Si       1.21358871       0.69201549      -2.02241558       0.00000000
Si      -1.58314365      -2.34893655       2.40106834       0.00000000
Si       0.67513905       3.63592800       0.51739811       0.00000000
Si      -1.49610618       3.44816946      -0.39302588       0.00000000
Si      -2.45974113       0.19425825      -2.92200815       0.00000000
Si       2.87907735      -1.12111038      -2.32724274       0.00000000
Si       1.90788480       3.06958986      -1.44415520       0.00000000
