10
Lattice="16.28999089631971 0.0 0.0 0.0 16.28999089631971 0.0 0.0 0.0 34.385447050020396" Properties=species:S:1:pos:R:3:initial_magmoms:R:1 pbc="T T T"
Si      -0.81972909       0.11854233       2.18289255       0.00000000
Si      -1.22855922      -1.95566337      -0.51554130       0.00000000
Si       2.26964565      -0.54543807       0.45323483       0.00000000
Si      -0.62938044       2.06845533      -1.06343932       0.00000000
Si       0.28737189       2.09561076       2.69031888       0.00000000
Si       0.18318105      -1.84943628       3.03510195       0.00000000
Si       0.07535754       3.48948090       0.74155697       0.00000000
Si      -2.30868396      -1.47470112      -2.52344621       0.00000000
Si      -3.00961008       2.09632752      -1.00756293       0.00000000
Si       2.81133376      -2.46470958      -0.76143177       0.00000000
