10
Lattice="16.28999089631971 0.0 0.0 0.0 16.28999089631971 0.0 0.0 0.0 34.385447050020396" Properties=species:S:1:pos:R:3:initial_magmoms:R:1 pbc="T T T"
Si      -1.67922207       0.99126279       1.35197808       0.00000000
Si       1.04614595      -1.72910205       1.35114939       0.00000000
Si      -1.16665722      -1.43527932      -1.67510660       0.00000000
Si       2.01201278       1.72872738      -0.11676273       0.00000000
Si      -0.32334021       2.33999334       2.72930856       0.00000000
Si       2.40392412      -0.39185595       2.73154362       0.00000000
Si      -3.06292725       2.35019088      -0.18434048       0.00000000
Si       2.56822994      -3.00180717      -0.03119449       0.00000000
Si      -2.74631481      -2.84980518      -0.14927419       0.00000000
Si       1.03796622       3.66028155       1.32326278       0.00000000
