10
Lattice="16.28999089631971 0.0 0.0 0.0 16.28999089631971 0.0 0.0 0.0 34.385447050020396" Properties=species:S:1:pos:R:3:initial_magmoms:R:1 pbc="T T T"
Si       1.35555021       1.35752715       1.35791645       0.00000000
Si      -1.35848826      -1.35773892       1.35850100       0.00000000
Si       1.36224378      -1.36620972      -1.35361827       0.00000000
Si      -1.36502055       1.36563957      -1.35585332       0.00000000
Si       2.71271573      -2.71521720       0.00240698       0.00000000
Si      -2.71347417      -2.71463076      -0.00017193       0.00000000
Si       2.71476827       2.71440270      -0.00116911       0.00000000
Si       2.71427957      -0.00047241       2.71545466       0.00000000
Si      -2.71495656       2.71477737       0.00199436       0.00000000
Si      -0.00104950       2.71482624       2.71552343       0.00000000
