10
Lattice="16.28999089631971 0.0 0.0 0.0 16.28999089631971 0.0 0.0 0.0 34.385447050020396" Properties=species:S:1:pos:R:3:initial_magmoms:R:1 pbc="T T T"
Si      -1.35498591      -1.35689184      -1.35867293       0.00000000
Si      -1.35759231       1.35715248       1.35674734       0.00000000
Si       1.35780197      -1.35777150       1.35650664       0.00000000
Si       1.35848826       1.35773892      -1.35850100       0.00000000
Si       0.00057015       2.71366965       2.71504203       0.00000000
Si       2.71554367       0.00092853       2.71373538       0.00000000
Si       2.71403847       2.71526607      -0.00058455       0.00000000
Si      -2.71479366      -2.71484253      -0.00055017       0.00000000
Si       0.00120546      -2.71580364       2.71390731       0.00000000
Si       2.71500936      -2.71500543       0.00120349       0.00000000
