10
Lattice="16.28999089631971 0.0 0.0 0.0 16.28999089631971 0.0 0.0 0.0 34.385447050020396" Properties=species:S:1:pos:R:3:initial_magmoms:R:1 pbc="T T T"
Si      -1.36010097      -1.35195597      -1.37521234       0.00000000
Si       1.35145098       1.36871838      -1.37689723       0.00000000
Si       1.48665798      -1.31220837       1.35715997       0.00000000
Si      -1.43953101       1.27848807       1.45092913       0.00000000
Si      -2.71446786       2.70495450      -0.01096896       0.00000000
Si      -2.71555929      -2.70516627       0.01028125       0.00000000
Si       2.71373481       2.71785618      -0.01004056       0.00000000
Si       2.72476314      -2.70681156      -0.03056868       0.00000000
Si      -0.00330687      -2.71026504      -2.73670487       0.00000000
Si       2.71308321       0.00483813      -2.73673926       0.00000000
