10
Lattice="16.28999089631971 0.0 0.0 0.0 16.28999089631971 0.0 0.0 0.0 34.385447050020396" Properties=species:S:1:pos:R:3:initial_magmoms:R:1 pbc="T T T"
Si       1.23810516      -1.39460319      -1.38772865       0.00000000
Si      -0.82789038      -1.82208537       1.24616368       0.00000000
Si       1.60274052       1.05642279       1.41372406       0.00000000
Si      -1.48665798       1.31220837      -1.35715997       0.00000000
Si      -1.32641325      -0.50717286       3.19416912       0.00000000
Si       2.55889836       2.57243535      -0.06127490       0.00000000
Si       2.58710730      -0.04483008      -2.73928378       0.00000000
Si       2.43336762      -2.89012293      -0.01196614       0.00000000
Si      -0.13520700       2.68092675      -2.73405719       0.00000000
Si      -2.72914515      -2.70637173       0.08142478       0.00000000
