10
Lattice="16.28999089631971 0.0 0.0 0.0 16.28999089631971 0.0 0.0 0.0 34.385447050020396" Properties=species:S:1:pos:R:3:initial_magmoms:R:1 pbc="T T T"
Si       1.89003096      -1.08462078       0.84963049       0.00000000
Si      -0.16045650       1.65465675       1.66779827       0.00000000
Si       1.37826432       0.87472413      -1.73526256       0.00000000
Si      -1.99780560      -1.03619061      -0.79313516       0.00000000
Si       0.91857681      -2.55142125       2.36737058       0.00000000
Si      -3.12191334       0.70749099      -1.95698004       0.00000000
Si       2.88759798      -2.27286225      -0.87841112       0.00000000
Si       0.12307095       3.77719488       0.65112319       0.00000000
Si       0.16863408       2.46317832      -2.96701873       0.00000000
Si      -1.50198687      -2.66890473      -2.45759804       0.00000000
