10
Lattice="16.28999089631971 0.0 0.0 0.0 16.28999089631971 0.0 0.0 0.0 34.385447050020396" Properties=species:S:1:pos:R:3:initial_magmoms:R:1 pbc="T T T"
Si      -1.32579423      -1.38808719      -1.34121199       0.00000000
Si       1.35736425      -1.35503478       1.35949818       0.00000000
Si      -1.35834165       1.36010235       1.35918871       0.00000000
Si       1.37834577       1.36593279      -1.39411059       0.00000000
Si      -2.61646722      -0.02883330      -2.65698905       0.00000000
Si       2.70730026      -2.70417258       0.00165050       0.00000000
Si       2.71648782       2.70973140      -0.00233821       0.00000000
Si      -0.00127062      -2.71145421       2.71645184       0.00000000
Si       2.71327869       0.00167787       2.71524834       0.00000000
Si      -2.71479366      -2.71490769       0.00319785       0.00000000
