10
Lattice="16.28999089631971 0.0 0.0 0.0 16.28999089631971 0.0 0.0 0.0 34.385447050020396" Properties=species:S:1:pos:R:3:initial_magmoms:R:1 pbc="T T T"
Si      -1.36130643      -1.32028821       1.40604579       0.00000000
Si       1.35790901       1.38893427       1.39779327       0.00000000
Si      -1.32265026       1.30320000      -1.60889941       0.00000000
Si       0.97404656      -1.93155417      -1.44002550       0.00000000
Si      -2.71718829      -2.66901876       0.02871530       0.00000000
Si       2.72183813      -2.70409113       0.01690046       0.00000000
Si      -2.69026092       2.74981716       0.01028469       0.00000000
Si       0.00371412      -2.68592778       2.76189911       0.00000000
Si      -2.71124244       0.02884959       2.76389346       0.00000000
Si       2.71848239       0.02847492       2.76073000       0.00000000
