10
Lattice="16.28999089631971 0.0 0.0 0.0 16.28999089631971 0.0 0.0 0.0 34.385447050020396" Properties=species:S:1:pos:R:3:initial_magmoms:R:1 pbc="T T T"
Si       1.35490446      -1.35298224       1.36039220       0.00000000
Si      -1.35721764      -1.35728280      -1.35764136       0.00000000
Si      -1.35630540       1.35904212       1.35715997       0.00000000
Si       1.35783666       1.35730300      -1.35777891       0.00000000
Si      -2.71287144       2.71413947      -0.00013754       0.00000000
Si       0.00086337      -2.71443528      -2.71404485       0.00000000
Si       0.00076563       2.71418508      -2.71480133       0.00000000
Si       2.71538010       2.71364263      -0.00006877       0.00000000
Si      -2.71391400      -0.00034209      -2.71521396       0.00000000
Si      -2.71534752      -2.71450044       0.00055017       0.00000000
