10
Lattice="16.28999089631971 0.0 0.0 0.0 16.28999089631971 0.0 0.0 0.0 34.385447050020396" Properties=species:S:1:pos:R:3:initial_magmoms:R:1 pbc="T T T"
Si      -1.35816246      -1.35651717      -1.35829469       0.00000000
Si       1.35686861       1.35889551      -1.35801960       0.00000000
Si       1.36068207      -1.36187658       1.35461544       0.00000000
Si      -1.36163223       1.36388025       1.35984203       0.00000000
Si       2.71993057      -0.00399105       2.69778053       0.00000000
Si       0.01167993      -2.71164969       2.70617058       0.00000000
Si       2.71269129       2.71445157      -0.00034385       0.00000000
Si       2.71497352      -2.71274112      -0.00130665       0.00000000
Si      -0.00057015      -2.71366965      -2.71504203       0.00000000
Si       2.71346832       0.00159642      -2.71562658       0.00000000
