10
Lattice="16.28999089631971 0.0 0.0 0.0 16.28999089631971 0.0 0.0 0.0 34.385447050020396" Properties=species:S:1:pos:R:3:initial_magmoms:R:1 pbc="T T T"
Si      -0.44289252       0.12665475       2.36534184       0.00000000
Si       1.94768127       1.47165489      -0.46915530       0.00000000
Si      -1.89252333      -0.06892299      -1.66549444       0.00000000
Si       2.20042062      -1.75514976       0.28594954       0.00000000
Si       2.54847276      -0.61665795      -1.77741914       0.00000000
Si       0.97365330      -3.30023997      -1.03599971       0.00000000
Si      -0.79747695      -0.91663830      -3.54717031       0.00000000
Si       3.08884042       1.63629792       1.64912696       0.00000000
Si      -2.90253591      -2.22773895      -1.27184963       0.00000000
Si      -2.14653330       1.92757941       2.62085718       0.00000000
