10
Lattice="16.28999089631971 0.0 0.0 0.0 16.28999089631971 0.0 0.0 0.0 34.385447050020396" Properties=species:S:1:pos:R:3:initial_magmoms:R:1 pbc="T T T"
Si       1.51470936      -1.43692461      -1.08561794       0.00000000
Si      -0.60628122       1.95370857      -1.23302843       0.00000000
Si      -1.82161133      -1.44239805       0.56691318       0.00000000
Si       1.49729535       0.68981634       1.81555262       0.00000000
Si       1.62515556       2.55870288      -1.64135585       0.00000000
Si       2.82840012       2.06459460       0.38604563       0.00000000
Si      -0.23570001       1.87543512       3.02141654       0.00000000
Si      -0.20577528      -2.46896127      -2.59905985       0.00000000
Si       2.26230633      -2.71671588       0.72783716       0.00000000
Si      -1.27992322      -3.36166956      -0.64775341       0.00000000
