10
Lattice="16.28999089631971 0.0 0.0 0.0 16.28999089631971 0.0 0.0 0.0 34.385447050020396" Properties=species:S:1:pos:R:3:initial_magmoms:R:1 pbc="T T T"
Si       0.98577306       1.65361419       1.42782352       0.00000000
Si      -1.70655017      -0.93986784       1.46713642       0.00000000
Si       1.46526921      -2.01938985      -0.06622641       0.00000000
Si      -0.38709927       0.73081827      -2.53266152       0.00000000
Si       2.20126770       0.30942855       2.87753197       0.00000000
Si       1.18767132      -2.43076122      -2.56880064       0.00000000
Si       2.80826568       2.50553232       0.13926114       0.00000000
Si      -0.52084017      -2.39463000       2.87793772       0.00000000
Si       3.32100972      -1.17183744       1.40900091       0.00000000
Si      -2.96210681      -2.49295644       0.20981706       0.00000000
