10
Lattice="16.28999089631971 0.0 0.0 0.0 16.28999089631971 0.0 0.0 0.0 34.385447050020396" Properties=species:S:1:pos:R:3:initial_magmoms:R:1 pbc="T T T"
Si       1.35047195      -1.34900748       1.35602525       0.00000000
Si      -1.35777816      -1.33724610      -1.38039423       0.00000000
Si      -1.36224378       1.36620972       1.35361827       0.00000000
Si       1.35588023       1.34804637      -1.39138038       0.00000000
Si      -0.39191134       2.12058333      -2.84830634       0.00000000
Si      -2.40392412       0.39185595      -2.73154362       0.00000000
Si       0.16430583      -2.60995122      -2.76273811       0.00000000
Si       2.71207160      -2.70593190       0.00085964       0.00000000
Si      -0.00572268      -2.70653463       2.71332276       0.00000000
Si       2.70946520       0.00710244       2.71211927       0.00000000
