10
Lattice="16.28999089631971 0.0 0.0 0.0 16.28999089631971 0.0 0.0 0.0 34.385447050020396" Properties=species:S:1:pos:R:3:initial_magmoms:R:1 pbc="T T T"
Si      -1.35588023      -1.34804637       1.39138038       0.00000000
Si       1.35348723       1.37828061       1.38347173       0.00000000
Si      -1.74779157       0.77253696      -1.45692596       0.00000000
Si       1.50074883      -1.36451556      -1.41067063       0.00000000
Si      -2.71365839      -2.68529247       0.01098616       0.00000000
Si       2.71624347      -2.70870120       0.03903782       0.00000000
Si      -2.72183813       2.70409113      -0.01690046       0.00000000
Si       2.70158247       2.73049722      -0.01057353       0.00000000
Si      -0.00540828      -2.69705385       2.74740563       0.00000000
Si       2.70997182       0.01435149       2.74451725       0.00000000
