10
Lattice="16.28999089631971 0.0 0.0 0.0 16.28999089631971 0.0 0.0 0.0 34.385447050020396" Properties=species:S:1:pos:R:3:initial_magmoms:R:1 pbc="T T T"
Si       1.74779157      -0.77253696       1.45692596       0.00000000
Si       0.58180550       0.54244071      -2.42527024       0.00000000
Si      -0.97404656       1.93155417       1.44002550       0.00000000
Si      -2.01201278      -1.72872738       0.11676273       0.00000000
Si       0.39191134      -2.12058333       2.84830634       0.00000000
Si      -2.33535299       0.61126596       2.84607129       0.00000000
Si       1.41461220       2.75566527      -2.17050832       0.00000000
Si      -0.96586683      -3.45782943       1.46791212       0.00000000
Si       3.24854040      -2.13705252       0.04625533       0.00000000
Si      -1.67349029       0.66665196      -3.47760305       0.00000000
