10
Lattice="16.28999089631971 0.0 0.0 0.0 16.28999089631971 0.0 0.0 0.0 34.385447050020396" Properties=species:S:1:pos:R:3:initial_magmoms:R:1 pbc="T T T"
Si       1.35723393       1.35596331       1.35674734       0.00000000
Si      -1.35722416      -1.35633798       1.35678173       0.00000000
Si       1.35742941      -1.35863487      -1.35695366       0.00000000
Si      -1.35872935       1.35799956      -1.35753821       0.00000000
Si      -2.71151561      -0.00547344       2.71270382       0.00000000
Si       2.71425609       0.00193851       2.71184418       0.00000000
Si      -0.00156384      -2.71474479      -2.71304767       0.00000000
Si       2.71467963      -2.71459818       0.00006877       0.00000000
Si       0.00172674      -2.71264338       2.71689885       0.00000000
Si      -2.71427957       0.00047241      -2.71545466       0.00000000
