10
Lattice="16.28999089631971 0.0 0.0 0.0 16.28999089631971 0.0 0.0 0.0 34.385447050020396" Properties=species:S:1:pos:R:3:initial_magmoms:R:1 pbc="T T T"
Si      -1.35429145       1.35086454       1.35592209       0.00000000
Si       1.35722416       1.35633798      -1.35678173       0.00000000
Si      -1.35774170      -1.35870003      -1.35722874       0.00000000
Si       1.35895090      -1.35630540       1.36011712       0.00000000
Si       2.71998040       0.00166158       2.68715542       0.00000000
Si       0.00495705       2.70875007       2.69908717       0.00000000
Si      -2.70329359       0.00109143       2.70747723       0.00000000
Si      -0.03614425      -2.71691136       2.70011874       0.00000000
Si       2.71445809       2.71230129      -0.00003439       0.00000000
Si      -2.71497352       2.71274112       0.00130665       0.00000000
