10
Lattice="16.28999089631971 0.0 0.0 0.0 16.28999089631971 0.0 0.0 0.0 34.385447050020396" Properties=species:S:1:pos:R:3:initial_magmoms:R:1 pbc="T T T"
Si       1.36102950       1.35796698       1.32703830       0.00000000
Si       1.35514881      -1.35957969      -1.35956695       0.00000000
Si      -1.35895090       1.35630540      -1.36011712       0.00000000
Si      -1.39509515      -1.36060596       1.34000162       0.00000000
Si      -0.07582995       2.59250463       2.63158850       0.00000000
Si      -0.02894733      -2.70490563       2.60734675       0.00000000
Si      -2.71324235       2.70716994      -0.00419503       0.00000000
Si       2.71252935       2.71458189      -0.00505466       0.00000000
Si      -0.00172674       2.71264338      -2.71689885       0.00000000
Si       2.71295289      -0.00195480      -2.71683008       0.00000000
