10
Lattice="16.28999089631971 0.0 0.0 0.0 16.28999089631971 0.0 0.0 0.0 34.385447050020396" Properties=species:S:1:pos:R:3:initial_magmoms:R:1 pbc="T T T"
Si      -1.80529757      -0.97497279      -1.11573961       0.00000000
Si       0.98585451       1.75565475      -1.20727372       0.00000000
Si      -1.02147748       1.59400908       1.40966658       0.00000000
Si       1.84922451      -1.68309909      -0.07561364       0.00000000
Si       2.06206965      -0.53209656       2.49249929       0.00000000
Si      -0.33341069      -2.19745584      -2.49886060       0.00000000
Si      -1.69587764      -0.06603966       3.01306087       0.00000000
Si       2.42271396       0.52111710      -2.51182393       0.00000000
Si       1.04467770       2.80209177       1.89312623       0.00000000
Si       2.72354139       2.52809397       0.19427788       0.00000000
