10
Lattice="16.28999089631971 0.0 0.0 0.0 16.28999089631971 0.0 0.0 0.0 34.385447050020396" Properties=species:S:1:pos:R:3:initial_magmoms:R:1 pbc="T T T"
Si      -1.35534918      -1.35746688       1.35894801       0.00000000
Si       1.35905841       1.35765747       1.35898240       0.00000000
Si      -1.36433963       1.36606311      -1.34973271       0.00000000
Si       1.36884870      -1.36800162      -1.35341195       0.00000000
Si      -2.69325991      -0.00159642      -2.72523732       0.00000000
Si      -0.00011403       2.71419093      -2.70490176       0.00000000
Si      -2.71123334       2.71586880       0.00429818       0.00000000
Si      -2.71469427      -2.71355546       0.00082525       0.00000000
Si      -2.71317336      -0.00032580       2.71600482       0.00000000
Si       2.71604799      -2.71348388       0.00391994       0.00000000
