10
Lattice="16.28999089631971 0.0 0.0 0.0 16.28999089631971 0.0 0.0 0.0 34.385447050020396" Properties=species:S:1:pos:R:3:initial_magmoms:R:1 pbc="T T T"
Si       0.26900980      -2.03864463       1.07313602       0.00000000
Si      -0.89435262       1.27348704       1.76167059       0.00000000
Si      -1.12361808       0.11657124      -2.08678518       0.00000000
Si       1.64208902       1.52836038      -0.79949648       0.00000000
Si       0.59466482       1.45523457      -3.09923085       0.00000000
Si      -2.83517580       1.98637002       0.61223323       0.00000000
Si       1.07570200       2.29358313       2.53173311       0.00000000
Si       1.47985690      -1.51570305       2.98527741       0.00000000
Si      -2.72257932       1.75247820      -1.71851683       0.00000000
Si       1.22359891       3.48303006       0.53995498       0.00000000
