10
Lattice="16.28999089631971 0.0 0.0 0.0 16.28999089631971 0.0 0.0 0.0 34.385447050020396" Properties=species:S:1:pos:R:3:initial_magmoms:R:1 pbc="T T T"
Si      -1.35651552       1.35645935       1.36427776       0.00000000
Si       1.36057338      -1.36045935       1.36293673       0.00000000
Si       1.38968361       1.34405465      -1.37475501       0.00000000
Si      -1.35790901      -1.38893427      -1.39779327       0.00000000
Si      -2.71002788       2.70468150       0.00426380       0.00000000
Si      -2.71921544      -2.70922248       0.00825251       0.00000000
Si       2.72702745       2.70201320       0.01004056       0.00000000
Si       2.71741635      -2.71474479       0.00257891       0.00000000
Si       0.00282957       2.71254794       2.72240052       0.00000000
Si      -2.71323701      -0.00337203       2.72185035       0.00000000
