10
Lattice="16.28999089631971 0.0 0.0 0.0 16.28999089631971 0.0 0.0 0.0 34.385447050020396" Properties=species:S:1:pos:R:3:initial_magmoms:R:1 pbc="T T T"
Si       1.96796232      -0.38626848       1.11505190       0.00000000
Si      -1.82811267      -1.38165264       0.24709396       0.00000000
Si      -0.44922933       1.79759240       1.44869408       0.00000000
Si       0.17076807      -0.28916379      -2.34673930       0.00000000
Si      -3.22398648       0.52286569      -0.23065771       0.00000000
Si      -2.11960756       2.63116799       0.06853023       0.00000000
Si       2.88829845       1.69698861       0.52503168       0.00000000
Si       2.41214175      -2.41000776       0.07434138       0.00000000
Si       0.59227182       2.03795135      -2.79464439       0.00000000
Si       2.17504080      -1.62492750      -2.22793752       0.00000000
