10
Lattice="10.86 0.0 0.0 0.0 10.86 0.0 0.0 0.0 10.86" Properties=species:S:1:pos:R:3:initial_magmoms:R:1 pbc="T T T"
Si      -1.44506418       1.31378850       0.90663624       0.00000000
Si       0.85595262       1.37634210      -1.73682894       0.00000000
Si       0.26869812      -2.39083986      -0.01734342       0.00000000
Si      -1.59078366      -1.18922430      -1.68047640       0.00000000
Si      -0.77476326      -2.81883246       1.91945070       0.00000000
Si      -0.47378922       2.83462290       2.21743824       0.00000000
Si       2.24121078       2.83462290      -0.49756176       0.00000000
Si       3.31086648       1.51785876       0.85493178       0.00000000
Si      -3.18878922       0.11962290       2.21743824       0.00000000
Si       2.24121078       0.11962290      -3.21256176       0.00000000
