10
Lattice="10.86 0.0 0.0 0.0 10.86 0.0 0.0 0.0 10.86" Properties=species:S:1:pos:R:3:initial_magmoms:R:1 pbc="T T T"
Si      -1.04346138      -0.42799260       1.93679412       0.00000000
Si      -0.26869812       2.39083986       0.01734342       0.00000000
Si       0.76569516      -1.62284238      -1.69896012       0.00000000
Si      -1.85948178       1.20161556      -1.66313298       0.00000000
Si      -0.74248734      -2.91953724      -0.48021834       0.00000000
Si      -0.74248734      -0.20453724      -3.19521834       0.00000000
Si       2.87071068      -1.53434424       0.73504824       0.00000000
Si      -3.45748734      -0.20453724      -0.48021834       0.00000000
Si       0.44809446      -1.67318934       3.53111814       0.00000000
Si       1.97251266      -2.91953724       2.23478166       0.00000000
