10
Lattice="10.86 0.0 0.0 0.0 10.86 0.0 0.0 0.0 10.86" Properties=species:S:1:pos:R:3:initial_magmoms:R:1 pbc="T T T"
Si      -1.25377614      -1.29070014       1.33553022       0.00000000
Si      -1.25377614       1.42429986      -1.37946978       0.00000000
Si       1.46122386       1.42429986       1.33553022       0.00000000
Si       2.58378948      -0.03307956      -2.57377656       0.00000000
Si      -2.59779888      -0.09346116      -2.66621688       0.00000000
Si      -2.61127614       0.06679986       2.69303022       0.00000000
Si       0.10372386      -2.64820014       2.69303022       0.00000000
Si       2.71873584      -2.64684264      -0.09701238       0.00000000
Si      -2.61127614       2.78179986      -0.02196978       0.00000000
Si       0.10372386       2.78179986       2.69303022       0.00000000
