10
Lattice="10.86 0.0 0.0 0.0 10.86 0.0 0.0 0.0 10.86" Properties=species:S:1:pos:R:3:initial_magmoms:R:1 pbc="T T T"
Si      -1.12256562       1.45737942      -1.52069322       0.00000000
Si       1.59243438       1.45737942       1.19430678       0.00000000
Si       1.59243438      -1.25762058      -1.52069322       0.00000000
Si       0.13494636      -2.61376308       2.47676418       0.00000000
Si      -2.58378948       0.03307956       2.57377656       0.00000000
Si      -2.34099246       0.05636340      -2.85618000       0.00000000
Si      -2.48006562       2.81487942      -0.16319322       0.00000000
Si       0.23493438       2.81487942       2.55180678       0.00000000
Si       2.94993438       0.09987942       2.55180678       0.00000000
Si       2.94993438      -2.61512058      -0.16319322       0.00000000
