10
Lattice="16.28999089631971 0.0 0.0 0.0 16.28999089631971 0.0 0.0 0.0 34.31052061344573" Properties=species:S:1:pos:R:3:initial_magmoms:R:1 pbc="T T T"
Si      -1.35780408       1.35169533       1.36298619       0.00000000
Si       1.36085031      -1.36216980       1.36030997       0.00000000
Si       1.36213722       1.35715248      -1.38594681       0.00000000
Si      -1.34998488      -1.38574143      -1.37280244       0.00000000
Si       2.55332718      -0.21325239      -2.71891471       0.00000000
Si      -2.71246419       2.70972747       0.00394571       0.00000000
Si       2.72135853       2.70508482       0.00123518       0.00000000
Si       0.00164529       2.71016730       2.71876717       0.00000000
Si      -2.70982521      -2.72106694       0.00233312       0.00000000
Si      -2.71331127      -0.00402363       2.71897304       0.00000000
