10
Lattice="16.28999089631971 0.0 0.0 0.0 16.28999089631971 0.0 0.0 0.0 34.31052061344573" Properties=species:S:1:pos:R:3:initial_magmoms:R:1 pbc="T T T"
Si      -1.34698752      -1.35498591      -1.38772409       0.00000000
Si       1.37383344       1.36195803      -1.38521942       0.00000000
Si       1.12172940      -1.68493986       1.30349172       0.00000000
Si      -1.40098887       1.37728692       1.39561552       0.00000000
Si      -2.69136538      -2.70641734      -0.02439479       0.00000000
Si       2.70998811       2.70865233      -0.00946971       0.00000000
Si      -2.70978774       2.72155401      -0.01729251       0.00000000
Si      -0.26984385       0.37224279       3.81591530       0.00000000
Si      -2.70567778       0.00255753      -2.74048574       0.00000000
Si       0.00977400      -2.70946683      -2.74161799       0.00000000
