10
Lattice="16.28999089631971 0.0 0.0 0.0 16.28999089631971 0.0 0.0 0.0 34.31052061344573" Properties=species:S:1:pos:R:3:initial_magmoms:R:1 pbc="T T T"
Si      -1.35676152       1.35448092       1.35389390       0.00000000
Si       1.35788553       1.35653346      -1.35807979       0.00000000
Si      -1.35705474      -1.35827953      -1.35790823       0.00000000
Si       1.36308204      -1.36062944       1.35482028       0.00000000
Si      -2.70113938       0.00304949       2.71722320       0.00000000
Si       2.71270854       2.71340901      -0.00003431       0.00000000
Si      -2.71545178       2.71202436       0.00113225       0.00000000
Si      -2.71274601      -2.71491488      -0.00116656       0.00000000
Si       2.71388142      -2.71568051      -0.00185277       0.00000000
Si      -0.00043983       2.71513575      -2.71482146       0.00000000
