10
Lattice="16.28999089631971 0.0 0.0 0.0 16.28999089631971 0.0 0.0 0.0 34.31052061344573" Properties=species:S:1:pos:R:3:initial_magmoms:R:1 pbc="T T T"
Si      -0.31711743      -0.40791789      -2.27883743       0.00000000
Si       2.14462737       0.79045596      -0.59391544       0.00000000
Si      -1.70869068       1.64926476       0.23358615       0.00000000
Si      -1.09020825      -2.22156830      -0.59566528       0.00000000
Si       0.88544295      -0.90950328       2.84245667       0.00000000
Si      -1.44285417      -0.44828451       2.85371053       0.00000000
Si      -2.34773109      -2.29650393       1.60192479       0.00000000
Si       3.26884914       1.54691469       1.33680725       0.00000000
Si       3.60528651      -1.25848884      -0.63515671       0.00000000
Si      -2.73830013       1.60651980       2.30769260       0.00000000
