10
Lattice="16.28999089631971 0.0 0.0 0.0 16.28999089631971 0.0 0.0 0.0 34.31052061344573" Properties=species:S:1:pos:R:3:initial_magmoms:R:1 pbc="T T T"
Si      -1.42724835       1.21023297       1.46891312       0.00000000
Si      -1.66392576      -1.26944712      -1.19395635       0.00000000
Si       1.28099673      -1.49327172       1.43592011       0.00000000
Si       0.88930368       1.70469963      -1.84637164       0.00000000
Si       0.79648326      -0.40122270      -3.31067686       0.00000000
Si       2.51168994       2.57111586      -0.05706186       0.00000000
Si      -1.11161331       3.17609388      -1.37388120       0.00000000
Si      -2.83361292       2.34538533      -0.00785711       0.00000000
Si      -0.05341491      -2.60851770      -2.76929085       0.00000000
Si      -0.08276949       2.57681736       2.82481762       0.00000000
