10
Lattice="16.28999089631971 0.0 0.0 0.0 16.28999089631971 0.0 0.0 0.0 34.31052061344573" Properties=species:S:1:pos:R:3:initial_magmoms:R:1 pbc="T T T"
Si      -0.42766137       1.40411655       1.76229226       0.00000000
Si       2.23552557       0.46180521      -0.44363528       0.00000000
Si      -0.43898292      -1.82622303       1.39283636       0.00000000
Si      -1.47887136       1.22596911      -1.40031606       0.00000000
Si      -2.04530724      -0.67891833      -2.65385163       0.00000000
Si      -1.87250292      -2.96412840      -0.04340283       0.00000000
Si      -0.74986128      -2.73372264      -2.10783370       0.00000000
Si      -2.82520728       1.35856971       1.76033655       0.00000000
Si      -0.01567098       2.90877498      -2.17285217       0.00000000
Si       3.07602441      -1.43762508      -1.53093629       0.00000000
