10
Lattice="16.28999089631971 0.0 0.0 0.0 16.28999089631971 0.0 0.0 0.0 34.31052061344573" Properties=species:S:1:pos:R:3:initial_magmoms:R:1 pbc="T T T"
Si      -2.23552557      -0.46180521       0.44363528       0.00000000
Si       0.84049884      -1.89943029      -1.08730101       0.00000000
Si       0.02489112       1.86642675      -1.44495407       0.00000000
Si       1.29481065       0.86270211       1.80322473       0.00000000
Si      -2.66318694       0.94231134       2.20592753       0.00000000
Si       1.62372204       1.12264164      -3.06084325       0.00000000
Si       0.51917859       3.09115782       1.91504278       0.00000000
Si       1.24680402       3.50114454      -0.26638703       0.00000000
Si      -2.25119655       2.44696977      -1.72921689       0.00000000
Si       2.74571208      -2.55360411       0.10629405       0.00000000
