10
Lattice="16.28999089631971 0.0 0.0 0.0 16.28999089631971 0.0 0.0 0.0 34.31052061344573" Properties=species:S:1:pos:R:3:initial_magmoms:R:1 pbc="T T T"
Si      -2.14051089       0.89827947      -0.12615985       0.00000000
Si       1.43352000       1.13790537       1.43623920       0.00000000
Si      -0.25272306      -2.06299981       1.10198592       0.00000000
Si       1.12264164       0.23040576      -2.06443087       0.00000000
Si       2.08707480      -2.33771993       1.03037982       0.00000000
Si      -0.17280432       2.28521007      -2.61044880       0.00000000
Si       1.87250292       2.96412840       0.04340283       0.00000000
Si      -3.36654746      -1.12314826       0.13192403       0.00000000
Si       0.21776472      -1.61781366      -3.31621660       0.00000000
Si       3.01296582      -0.51315129       2.10951492       0.00000000
