10
Lattice="16.28999089631971 0.0 0.0 0.0 16.28999089631971 0.0 0.0 0.0 34.31052061344573" Properties=species:S:1:pos:R:3:initial_magmoms:R:1 pbc="T T T"
Si       0.65246337      -1.82465919      -1.32431821       0.00000000
Si       0.78801246      -0.00889434       2.25958922       0.00000000
Si      -0.66383379       1.74037473      -1.50705615       0.00000000
Si      -2.18610171      -0.88524747       0.43896905       0.00000000
Si       2.77767306       1.31351157       0.16403869       0.00000000
Si      -0.49790385      -1.00756908      -3.21815708       0.00000000
Si      -2.51269992       0.02402775       2.54580774       0.00000000
Si       0.26002098       3.64407300      -0.66902122       0.00000000
Si       0.32498550       1.15510761      -3.52039862       0.00000000
Si       2.64026691      -1.44210483       2.18980158       0.00000000
