10
Lattice="16.28999089631971 0.0 0.0 0.0 16.28999089631971 0.0 0.0 0.0 34.31052061344573" Properties=species:S:1:pos:R:3:initial_magmoms:R:1 pbc="T T T"
Si       1.85225445      -1.43321049      -0.06978764       0.00000000
Si      -1.54416168      -0.93590937       1.56974151       0.00000000
Si      -0.78801246       0.00889434      -2.25958922       0.00000000
Si       0.33780573       2.28594312       0.64603315       0.00000000
Si       1.98966060       1.32240591      -2.09555053       0.00000000
Si      -3.30071238       0.03292209       0.28621852       0.00000000
Si      -2.97411417      -0.87635313      -1.82062017       0.00000000
Si       2.43390519       2.78383068      -0.30004567       0.00000000
Si       3.04065882      -0.74217240      -1.99632445       0.00000000
Si      -1.18446219       3.47683986      -0.63460774       0.00000000
