10
Lattice="16.28999089631971 0.0 0.0 0.0 16.28999089631971 0.0 0.0 0.0 34.31052061344573" Properties=species:S:1:pos:R:3:initial_magmoms:R:1 pbc="T T T"
Si       0.72762543       0.40998672      -2.18142981       0.00000000
Si       0.96990660       1.17011070       1.78963776       0.00000000
Si      -2.35947618       0.01383021      -0.01135679       0.00000000
Si       0.77563206      -2.22845571      -0.11181805       0.00000000
Si      -0.43530138       3.05536869       1.64968506       0.00000000
Si      -0.49428747      -1.22473107      -3.35999685       0.00000000
Si      -0.51917859      -3.09115782      -1.91504278       0.00000000
Si       0.09321138       0.17223417       3.67308053       0.00000000
Si       2.98986660      -0.18469602      -2.15943675       0.00000000
Si       3.08985462      -1.98226494      -0.56461424       0.00000000
