10
Lattice="16.28999089631971 0.0 0.0 0.0 16.28999089631971 0.0 0.0 0.0 34.31052061344573" Properties=species:S:1:pos:R:3:initial_magmoms:R:1 pbc="T T T"
Si      -2.09609946      -0.49788756       0.94607882       0.00000000
Si      -0.44424459      -1.46142477      -1.79550486       0.00000000
Si       0.26450073       2.29154688      -0.57374085       0.00000000
Si       1.52044344      -0.45071172       1.81344927       0.00000000
Si       2.64991059       2.30441598      -0.65694391       0.00000000
Si      -3.61836738       0.69300918      -0.33456207       0.00000000
Si      -2.43390519      -2.78383068       0.30004567       0.00000000
Si       0.43245063      -0.46354824      -3.67894763       0.00000000
Si       0.01179396       0.14286330       3.78918739       0.00000000
Si      -2.23407576       0.61574571       3.03613967       0.00000000
