10
Lattice="16.28999089631971 0.0 0.0 0.0 16.28999089631971 0.0 0.0 0.0 34.31052061344573" Properties=species:S:1:pos:R:3:initial_magmoms:R:1 pbc="T T T"
Si      -1.35079938       1.35505107       1.35667305       0.00000000
Si      -1.35601218      -1.35685926      -1.35598684       0.00000000
Si       1.35796698       1.35767017      -1.35543787       0.00000000
Si       1.35677781      -1.35441576       1.36205981       0.00000000
Si      -2.70531288      -0.01143558       2.70648400       0.00000000
Si      -2.71331127      -0.00050499      -2.71314024       0.00000000
Si       0.00153126       2.71467704      -2.71317455       0.00000000
Si       0.00071676      -2.71484253      -2.71331180       0.00000000
Si      -2.71464705      -2.71386513       0.00120087       0.00000000
Si       2.71515204       2.71412481       0.00277915       0.00000000
