10
Lattice="16.28999089631971 0.0 0.0 0.0 16.28999089631971 0.0 0.0 0.0 34.31052061344573" Properties=species:S:1:pos:R:3:initial_magmoms:R:1 pbc="T T T"
Si       1.03361679      -2.02163787       0.49033192       0.00000000
Si      -2.17979748      -0.19205910       0.87975655       0.00000000
Si       0.81352260       0.71514729      -2.10025107       0.00000000
Si       1.15147494       1.28642130       1.69953828       0.00000000
Si       3.24430011       0.45198234       0.65725270       0.00000000
Si       0.04937499      -1.32238962      -3.15310430       0.00000000
Si       3.02275611      -1.46906478      -0.70000363       0.00000000
Si      -0.08425188       3.25864592       1.08826170       0.00000000
Si       0.04453686       0.02774187       3.46289416       0.00000000
Si      -3.29839431       1.14790743      -0.62675063       0.00000000
