10
Lattice="16.28999089631971 0.0 0.0 0.0 16.28999089631971 0.0 0.0 0.0 34.31052061344573" Properties=species:S:1:pos:R:3:initial_magmoms:R:1 pbc="T T T"
Si       1.53435510      -1.16181909       1.34047848       0.00000000
Si      -1.32170544      -1.18201869      -1.55667403       0.00000000
Si      -1.19118996       1.57040487       1.33296790       0.00000000
Si      -2.55073707      -2.61454337      -0.07222026       0.00000000
Si       0.16630461      -2.50903793       2.72437008       0.00000000
Si      -2.55332718       0.21325239       2.71891471       0.00000000
Si       0.96547572      -0.59741946      -3.59804822       0.00000000
Si      -2.52560160       0.45515889      -2.87224306       0.00000000
Si       0.11376936      -2.67270519      -2.88891798       0.00000000
Si      -2.47218669       3.06367659      -0.10295221       0.00000000
