10
Lattice="16.28999089631971 0.0 0.0 0.0 16.28999089631971 0.0 0.0 0.0 34.31052061344573" Properties=species:S:1:pos:R:3:initial_magmoms:R:1 pbc="T T T"
Si      -0.93199977       0.71947049       2.02466495       0.00000000
Si       1.43400870       1.75846950      -0.58273021       0.00000000
Si       1.23572682      -1.97222462       0.61127658       0.00000000
Si      -1.84059081      -0.11118305      -1.55107657       0.00000000
Si       0.08425188      -3.25864592      -1.08826170       0.00000000
Si       2.59178787      -0.73037276       2.20493253       0.00000000
Si       0.90880281       0.36037048       3.43750436       0.00000000
Si      -2.89629358      -0.51928694       2.13325781       0.00000000
Si       1.92806811       1.47666879      -2.84324581       0.00000000
Si       0.17616006       3.62259936      -1.17493012       0.00000000
