10
Lattice="16.28999089631971 0.0 0.0 0.0 16.28999089631971 0.0 0.0 0.0 34.31052061344573" Properties=species:S:1:pos:R:3:initial_magmoms:R:1 pbc="T T T"
Si       1.95662448      -0.63467274       1.12867952       0.00000000
Si      -1.74821022      -1.18676301       1.11100959       0.00000000
Si      -0.29703186       2.25452297       0.73544642       0.00000000
Si      -0.15234408      -0.58145819      -2.40925179       0.00000000
Si      -0.41964669       1.55449280       3.02543478       0.00000000
Si       1.40836824       0.08494420       3.30681551       0.00000000
Si      -2.20224510       2.90869679      -0.45814864       0.00000000
Si       2.06500185      -1.36994406      -2.78248185       0.00000000
Si      -2.03633145      -0.06781527       3.12627345       0.00000000
Si       3.65334201       0.78056141       0.29404133       0.00000000
