10
Lattice="16.28999089631971 0.0 0.0 0.0 16.28999089631971 0.0 0.0 0.0 34.31052061344573" Properties=species:S:1:pos:R:3:initial_magmoms:R:1 pbc="T T T"
Si       1.35330804      -1.35132066       1.36243722       0.00000000
Si       1.32017418       1.38111507      -1.36655106       0.00000000
Si      -1.36216980       1.36293543       1.35766806       0.00000000
Si      -1.35922131      -1.34793234      -1.38718199       0.00000000
Si       2.70632286      -2.70708849      -0.00295071       0.00000000
Si      -2.72135853      -2.70508482      -0.00123518       0.00000000
Si      -0.00412137      -2.70945054       2.71742906       0.00000000
Si       2.71050939       0.00540828       2.71797803       0.00000000
Si       2.70060507       2.72927547       0.00964126       0.00000000
Si      -2.71971324       0.00508248       2.71753199       0.00000000
