10
Lattice="16.28999089631971 0.0 0.0 0.0 16.28999089631971 0.0 0.0 0.0 34.31052061344573" Properties=species:S:1:pos:R:3:initial_magmoms:R:1 pbc="T T T"
Si      -2.26655199      -0.28028574       0.50587460       0.00000000
Si       1.25608932       1.08800910       1.65328767       0.00000000
Si       0.01972719       1.21168278      -2.01104367       0.00000000
Si       0.71335539      -2.25296239      -0.18915401       0.00000000
Si       3.10933746      -0.33233229       1.52589264       0.00000000
Si      -2.81278520      -2.00003407      -1.05906343       0.00000000
Si      -1.25093842      -3.49171982      -0.08056115       0.00000000
Si      -3.22451495       1.85614776       0.22003349       0.00000000
Si      -1.90664024       0.72259182      -3.24262049       0.00000000
Si       2.55415797      -2.61206240       1.22368540       0.00000000
