10
Lattice="16.28999089631971 0.0 0.0 0.0 16.28999089631971 0.0 0.0 0.0 34.31052061344573" Properties=species:S:1:pos:R:3:initial_magmoms:R:1 pbc="T T T"
Si      -1.34933328      -1.33292925      -1.37389694       0.00000000
Si      -1.48488237       1.25200053       1.33612104       0.00000000
Si       1.36200690       1.38693060      -1.36741225       0.00000000
Si       1.36428750      -1.37039625       1.47260837       0.00000000
Si       0.41767560       2.12708304       2.47790718       0.00000000
Si       2.25772884       0.44114949       2.78330530       0.00000000
Si      -2.70112635      -2.68227882       0.00706797       0.00000000
Si       2.71691136      -2.68100820      -0.00349968       0.00000000
Si       0.00395847      -2.68684002      -2.72830550       0.00000000
Si      -2.70995553       0.02510289      -2.72676153       0.00000000
