10
Lattice="16.28999089631971 0.0 0.0 0.0 16.28999089631971 0.0 0.0 0.0 34.31052061344573" Properties=species:S:1:pos:R:3:initial_magmoms:R:1 pbc="T T T"
Si       0.73215405       0.77323743      -2.08148321       0.00000000
Si       1.89872982      -1.11710304       0.86709596       0.00000000
Si      -1.66519638      -1.73278359       0.00816591       0.00000000
Si      -0.80187525       1.92971340       1.25230039       0.00000000
Si      -0.32234652      -0.81063927      -3.35436992       0.00000000
Si      -0.62605728       2.61819396      -2.41426113       0.00000000
Si       3.36276099       0.80179380       1.31412798       0.00000000
Si      -1.78781121      -2.43281376       2.29815427       0.00000000
Si      -0.90186327       3.72728232      -0.34252212       0.00000000
Si      -3.57040962      -1.07860977      -1.18542915       0.00000000
