10
Lattice="16.28999089631971 0.0 0.0 0.0 16.28999089631971 0.0 0.0 0.0 34.31052061344573" Properties=species:S:1:pos:R:3:initial_magmoms:R:1 pbc="T T T"
Si      -1.07800704      -0.76155750      -2.04284954       0.00000000
Si      -0.83155563       2.22711993       0.53675408       0.00000000
Si       2.38475826       0.05496246      -0.58520057       0.00000000
Si      -0.71799804      -1.11309570       2.10203522       0.00000000
Si       3.47424975      -0.30143016       1.48876863       0.00000000
Si      -3.02365206      -0.67163670       2.29407131       0.00000000
Si      -3.39222960      -1.00774827      -1.59005335       0.00000000
Si      -0.12320127       3.77455590      -1.04928493       0.00000000
Si      -1.17799506       1.03601142      -3.63767205       0.00000000
Si      -3.19795506       2.39081814       0.31140246       0.00000000
