10
Lattice="16.28999089631971 0.0 0.0 0.0 16.28999089631971 0.0 0.0 0.0 34.31052061344573" Properties=species:S:1:pos:R:3:initial_magmoms:R:1 pbc="T T T"
Si       1.84352301       1.34382726      -0.36417207       0.00000000
Si      -1.09946097      -0.20264760      -2.08378201       0.00000000
Si       0.28075815      -2.34556452       0.11586669       0.00000000
Si      -0.95555511       0.27824949       2.20465804       0.00000000
Si      -1.39921326      -2.55599874      -1.88587882       0.00000000
Si       1.00263321       3.56368185      -0.50059078       0.00000000
Si      -2.95171542       1.23056289      -2.01399438       0.00000000
Si      -1.80545328      -1.92904551       2.74604405       0.00000000
Si       3.28191372       0.59629545      -2.09006084       0.00000000
Si       1.85025078      -3.09808107      -1.60171893       0.00000000
