10
Lattice="16.28999089631971 0.0 0.0 0.0 16.28999089631971 0.0 0.0 0.0 34.31052061344573" Properties=species:S:1:pos:R:3:initial_magmoms:R:1 pbc="T T T"
Si      -1.35754344      -1.35785295       1.35986393       0.00000000
Si      -1.36081773       1.35922131      -1.35595253       0.00000000
Si       1.35803214       1.35809730       1.36017273       0.00000000
Si       1.36216980      -1.36293543      -1.35766806       0.00000000
Si       2.68234398       0.01817964      -2.72421912       0.00000000
Si      -2.70529659      -0.00736308      -2.71185703       0.00000000
Si       2.71547784      -2.71425609       0.00476917       0.00000000
Si      -2.71529865       2.71446786       0.00322519       0.00000000
Si       2.71608057       2.71445157       0.00528382       0.00000000
Si      -2.71428867       0.00000000       2.71722320       0.00000000
