10
Lattice="16.28999089631971 0.0 0.0 0.0 16.28999089631971 0.0 0.0 0.0 34.31052061344573" Properties=species:S:1:pos:R:3:initial_magmoms:R:1 pbc="T T T"
Si       1.35804843       1.35635427      -1.35488891       0.00000000
Si      -1.35754344       1.35637056       1.35691323       0.00000000
Si       1.35772263      -1.35799956       1.35705047       0.00000000
Si      -1.35803214      -1.35809730      -1.36017273       0.00000000
Si       2.70474273       0.00824274      -2.70819953       0.00000000
Si       2.71428867      -0.00112401       2.71344904       0.00000000
Si       0.00024435       2.71277370       2.71526750       0.00000000
Si       2.71396287       2.71428867       0.00020586       0.00000000
Si       0.00144981       2.71138905      -2.71691440       0.00000000
Si      -2.71464705      -0.00078192       2.71464991       0.00000000
