10
Lattice="16.28999089631971 0.0 0.0 0.0 16.28999089631971 0.0 0.0 0.0 34.31052061344573" Properties=species:S:1:pos:R:3:initial_magmoms:R:1 pbc="T T T"
Si      -0.75258171      -1.80625149       1.23298356       0.00000000
Si      -1.40426316       1.30240179      -1.36953951       0.00000000
Si       1.32690195      -1.41289686      -1.38679771       0.00000000
Si       1.06077222      -0.55309437       2.96511685       0.00000000
Si       1.87965423       1.67415588       2.26326045       0.00000000
Si       2.59810839       2.58097131       0.09905453       0.00000000
Si      -0.02855637       2.64464892      -2.75050442       0.00000000
Si       2.69118945      -0.07708428      -2.75434720       0.00000000
Si       2.55609648      -2.92021056      -0.04800045       0.00000000
Si      -2.74277988      -0.07477110      -2.74796544       0.00000000
