10
Lattice="16.28999089631971 0.0 0.0 0.0 16.28999089631971 0.0 0.0 0.0 34.31052061344573" Properties=species:S:1:pos:R:3:initial_magmoms:R:1 pbc="T T T"
Si      -2.26224117       0.59468274      -0.02199306       0.00000000
Si       0.27580599      -1.10908836      -2.07173901       0.00000000
Si       1.26851859       2.01049551       0.33964003       0.00000000
Si       0.09998802      -1.79756892       1.59482251       0.00000000
Si       1.04453109       0.78693732      -3.25682506       0.00000000
Si      -2.21423454      -2.04375969       2.04761870       0.00000000
Si      -2.98986660       0.18469602       2.15943675       0.00000000
Si       1.63401732      -2.95404489      -1.73896109       0.00000000
Si      -3.48415407      -1.04003505      -1.20056010       0.00000000
Si      -1.88532315      -1.78382016      -2.81644928       0.00000000
