10
Lattice="16.28999089631971 0.0 0.0 0.0 16.28999089631971 0.0 0.0 0.0 34.31052061344573" Properties=species:S:1:pos:R:3:initial_magmoms:R:1 pbc="T T T"
Si       1.34024346      -1.37643984      -1.34161416       0.00000000
Si       1.35260757       1.35357261       1.35338610       0.00000000
Si      -1.36443411       1.24806717      -1.44320424       0.00000000
Si      -1.36632375      -1.35467640       1.34755331       0.00000000
Si      -2.18471706      -0.71565228      -2.72402496       0.00000000
Si      -0.36023706      -2.48692914      -2.80664474       0.00000000
Si      -2.71700910       2.69012150      -0.02487171       0.00000000
Si       2.64906351      -0.05333346      -2.75778653       0.00000000
Si       2.70658350      -0.00033749       2.71016209       0.00000000
Si       2.72065806       2.70079145      -0.03050550       0.00000000
