10
Lattice="16.28999089631971 0.0 0.0 0.0 16.28999089631971 0.0 0.0 0.0 34.31052061344573" Properties=species:S:1:pos:R:3:initial_magmoms:R:1 pbc="T T T"
Si      -0.68927877      -0.56117421       2.25217814       0.00000000
Si       2.10202902      -1.26003150      -0.06381760       0.00000000
Si      -2.14853697      -0.47957760      -1.19126194       0.00000000
Si      -0.04805550       2.56262877      -0.13501197       0.00000000
Si       0.26033049       1.68720417      -2.29307631       0.00000000
Si      -3.37776408       1.15834932       0.31805870       0.00000000
Si      -1.43008281       0.42723783      -3.35546786       0.00000000
Si      -3.00833946      -0.28160523       2.19920267       0.00000000
Si      -0.60222501      -3.85589187      -0.22459679       0.00000000
Si       1.58004855      -3.60895176       0.64318538       0.00000000
