10
Lattice="16.28999089631971 0.0 0.0 0.0 16.28999089631971 0.0 0.0 0.0 34.31052061344573" Properties=species:S:1:pos:R:3:initial_magmoms:R:1 pbc="T T T"
Si      -2.31906069       0.27956898      -0.05297547       0.00000000
Si       0.63672723       1.52158374       1.69535239       0.00000000
Si       0.31104126      -2.07115947       1.11969016       0.00000000
Si       0.68927877       0.56117421      -2.25217814       0.00000000
Si      -0.92113434       0.82533285       3.31107002       0.00000000
Si       0.09731646      -1.34311050       3.36843724       0.00000000
Si       2.57377113      -2.47901220       0.64321969       0.00000000
Si       2.79130779      -0.69885729      -2.31599575       0.00000000
Si      -2.89240353       1.05748164       2.05276528       0.00000000
Si      -2.68848531       1.71952353      -1.93411944       0.00000000
