10
Lattice="16.28999089631971 0.0 0.0 0.0 16.28999089631971 0.0 0.0 0.0 34.31052061344573" Properties=species:S:1:pos:R:3:initial_magmoms:R:1 pbc="T T T"
Si       1.06764660      -0.72241263       1.92526732       0.00000000
Si      -2.23687764       0.45742320       0.56286441       0.00000000
Si      -0.21232386      -1.77248232      -1.54737103       0.00000000
Si       0.69340014       1.98087607      -1.15633381       0.00000000
Si      -2.75129955       1.82811660      -1.33687587       0.00000000
Si       1.34553771      -1.07623143      -3.16308866       0.00000000
Si       1.24165638       1.26125913      -3.33446981       0.00000000
Si       1.30631139       0.95368176       3.50547354       0.00000000
Si      -0.05116689      -2.55669921       2.89268730       0.00000000
Si      -2.18359305      -1.54033353      -2.80567577       0.00000000
