10
Lattice="16.28999089631971 0.0 0.0 0.0 16.28999089631971 0.0 0.0 0.0 34.31052061344573" Properties=species:S:1:pos:R:3:initial_magmoms:R:1 pbc="T T T"
Si      -1.85924286      -0.23027544      -1.39431172       0.00000000
Si       0.56692458       2.29851609       0.27431277       0.00000000
Si       1.92155211      -0.98170056      -1.06939090       0.00000000
Si      -0.58906269      -1.42605918       1.89123126       0.00000000
Si       1.65962520      -1.91915748       2.16063762       0.00000000
Si       2.87699319       1.98597906       0.91955678       0.00000000
Si       2.11431168      -3.00206781       0.03986885       0.00000000
Si       2.53905714       0.39413655       2.63223599       0.00000000
Si      -1.01590956      -1.50309459      -3.22536229       0.00000000
Si       0.70630182       3.05921217      -1.99927515       0.00000000
