10
Lattice="16.28999089631971 0.0 0.0 0.0 16.28999089631971 0.0 0.0 0.0 34.31052061344573" Properties=species:S:1:pos:R:3:initial_magmoms:R:1 pbc="T T T"
Si       1.38698991      -1.30652968      -1.37007132       0.00000000
Si      -1.34791605      -1.35445974       1.36490415       0.00000000
Si       1.36734580       1.36076886       1.36112999       0.00000000
Si      -1.34838846       1.29323052      -1.46064085       0.00000000
Si       0.45195532       2.20178898      -2.77687348       0.00000000
Si       2.27531294       0.57267495      -2.82109977       0.00000000
Si      -2.43007704      -0.20953827      -2.94609307       0.00000000
Si      -2.69558775      -2.71470311       0.00263848       0.00000000
Si      -2.70223407      -0.00024435       2.71818046       0.00000000
Si       0.00847642      -2.71454623       2.71807753       0.00000000
