10
Lattice="16.28999089631971 0.0 0.0 0.0 16.28999089631971 0.0 0.0 0.0 34.31052061344573" Properties=species:S:1:pos:R:3:initial_magmoms:R:1 pbc="T T T"
Si       1.34838846      -1.29323052       1.46064085       0.00000000
Si      -1.08168858      -1.50276879      -1.48545221       0.00000000
Si       1.80034378       0.90855846      -1.31623263       0.00000000
Si      -1.35264015       1.43808120       1.42623081       0.00000000
Si      -2.58188355      -2.68480540      -0.03964926       0.00000000
Si       2.73537837      -2.59976020       0.09056953       0.00000000
Si       0.83240271       1.76823063      -3.28109431       0.00000000
Si       0.00047241      -2.64769026       2.82554500       0.00000000
Si       2.85272176       2.65455324      -0.13926991       0.00000000
Si      -2.71740006       0.06778269       2.81655564       0.00000000
