10
Lattice="16.28999089631971 0.0 0.0 0.0 16.28999089631971 0.0 0.0 0.0 34.31052061344573" Properties=species:S:1:pos:R:3:initial_magmoms:R:1 pbc="T T T"
Si      -1.89872982       1.11710304      -0.86709596       0.00000000
Si      -0.06965604      -1.31908275       2.03018895       0.00000000
Si       1.46403117       1.91889684       0.44703202       0.00000000
Si       0.38644767      -2.08964210      -1.30033515       0.00000000
Si       2.50577667      -2.61115831      -0.43306763       0.00000000
Si      -1.16657577       1.89034047      -2.94857917       0.00000000
Si      -3.56392620      -0.61568055      -0.85893005       0.00000000
Si      -1.85852610      -2.78525931       1.71243904       0.00000000
Si      -1.31026986      -3.50487625      -0.46569696       0.00000000
Si       1.77293844      -2.81003640       1.85561692       0.00000000
