10
Lattice="16.28999089631971 0.0 0.0 0.0 16.28999089631971 0.0 0.0 0.0 34.31052061344573" Properties=species:S:1:pos:R:3:initial_magmoms:R:1 pbc="T T T"
Si      -1.35663935       1.35581670      -1.35677599       0.00000000
Si       1.35762489      -1.35685926      -1.35667305       0.00000000
Si       1.35708732       1.35509994       1.35928065       0.00000000
Si      -1.35738706      -1.35997065       1.35928065       0.00000000
Si       2.71313208      -0.00114030      -2.71265990       0.00000000
Si       0.00024435       2.71316466      -2.71365490       0.00000000
Si      -2.71526015       0.00071676      -2.71176782       0.00000000
Si      -2.71462905      -2.71441899       0.00006862       0.00000000
Si       0.00130320      -2.71751409       2.71204231       0.00000000
Si      -0.00057015      -2.71502172      -2.71454698       0.00000000
