10
Lattice="16.28999089631971 0.0 0.0 0.0 16.28999089631971 0.0 0.0 0.0 34.31052061344573" Properties=species:S:1:pos:R:3:initial_magmoms:R:1 pbc="T T T"
Si       1.59369372       0.71188766       1.53769546       0.00000000
Si      -1.84259448       1.49095365       0.17457203       0.00000000
Si      -0.33306534      -2.21312260       0.81744861       0.00000000
Si       0.73283823       0.19887809      -2.28868456       0.00000000
Si       1.97014096      -2.77853221       0.81713982       0.00000000
Si      -1.38649077       0.72039430      -3.15595207       0.00000000
Si       3.34369259      -0.77897677       0.98107557       0.00000000
Si      -3.63146454       0.02477709      -0.14317788       0.00000000
Si       1.63228799       3.02723097       1.50335061       0.00000000
Si       0.72614304       0.30460508       3.68690767       0.00000000
