10
Lattice="16.28999089631971 0.0 0.0 0.0 16.28999089631971 0.0 0.0 0.0 34.31052061344573" Properties=species:S:1:pos:R:3:initial_magmoms:R:1 pbc="T T T"
Si       1.82692743      -0.01948936       1.47713736       0.00000000
Si       0.81773912      -2.17160265      -0.39882571       0.00000000
Si       0.56495041       1.20465364      -1.95381369       0.00000000
Si      -2.32556040       0.18297743       0.51867243       0.00000000
Si       0.01871721      -0.51509469      -3.51875172       0.00000000
Si       1.58056398      -2.00678043      -2.54024943       0.00000000
Si      -3.07677375       1.33225321      -1.40388436       0.00000000
Si       2.63265038      -2.27069472       1.10363282       0.00000000
Si      -2.29671081      -0.02922100      -3.23472907       0.00000000
Si       0.59510956      -1.39694732       3.70492071       0.00000000
