10
Lattice="16.28999089631971 0.0 0.0 0.0 16.28999089631971 0.0 0.0 0.0 34.31052061344573" Properties=species:S:1:pos:R:3:initial_magmoms:R:1 pbc="T T T"
Si      -1.35301482       1.35576783       1.36538793       0.00000000
Si       1.36355445      -1.36125756       1.36226567       0.00000000
Si      -1.33999911      -1.37306781      -1.37672070       0.00000000
Si       1.36475991       1.37029851      -1.39032483       0.00000000
Si      -2.70632286       2.70708849       0.00295071       0.00000000
Si      -2.70804960      -2.72028665       0.00717090       0.00000000
Si      -2.71044423      -0.00236205       2.72037977       0.00000000
Si       2.73007368       2.70133812       0.00686211       0.00000000
Si       2.71787247      -2.71547295       0.00898936       0.00000000
Si       0.00418653       2.71249677       2.72092874       0.00000000
