10
Lattice="16.28999089631971 0.0 0.0 0.0 16.28999089631971 0.0 0.0 0.0 34.31052061344573" Properties=species:S:1:pos:R:3:initial_magmoms:R:1 pbc="T T T"
Si       1.35869026      -1.35754344       1.35276165       0.00000000
Si      -1.35724199      -1.35444834      -1.35921203       0.00000000
Si       1.35738706       1.35997065      -1.35928065       0.00000000
Si      -1.35891247       1.36062225       1.35842289       0.00000000
Si       0.01431239      -2.70897487       2.71609095       0.00000000
Si      -2.71437079      -2.71302131      -0.00037742       0.00000000
Si       2.71545178      -2.71202436      -0.00113225       0.00000000
Si      -0.00011566      -2.71223939      -2.71574785       0.00000000
Si      -2.71349113       0.00255753      -2.71533612       0.00000000
Si       2.71447438       2.71507059       0.00000000       0.00000000
