10
Lattice="16.28999089631971 0.0 0.0 0.0 16.28999089631971 0.0 0.0 0.0 34.31052061344573" Properties=species:S:1:pos:R:3:initial_magmoms:R:1 pbc="T T T"
Si      -1.35641943       1.35671265      -1.35955514       0.00000000
Si      -1.35852084      -1.35062019       1.36353516       0.00000000
Si       1.35891247      -1.36062225      -1.35842289       0.00000000
Si       1.35480250       1.35837423       1.36477034       0.00000000
Si       0.10764222      -2.62386288       2.65096955       0.00000000
Si      -2.71324611      -0.00087966      -2.71715458       0.00000000
Si      -2.71606428      -2.71467963      -0.00065190       0.00000000
Si      -2.71342530       2.71731861      -0.00037742       0.00000000
Si       0.00172019       2.71456560      -2.71742906       0.00000000
Si       0.00167048      -2.71507059      -2.71763492       0.00000000
