10
Lattice="16.28999089631971 0.0 0.0 0.0 16.28999089631971 0.0 0.0 0.0 34.31052061344573" Properties=species:S:1:pos:R:3:initial_magmoms:R:1 pbc="T T T"
Si      -1.90255797      -0.87508251      -1.14178614       0.00000000
Si      -1.03268826       0.34296966       2.13613990       0.00000000
Si       0.95405643       1.93129353      -1.15056964       0.00000000
Si       1.84005324      -1.68593355       0.30539811       0.00000000
Si       1.14958530       0.58990977       3.00392207       0.00000000
Si      -0.41767560      -2.12708304      -2.47790718       0.00000000
Si       2.30808123       0.60429384      -2.49996886       0.00000000
Si       0.94661190      -3.49747929      -1.00529882       0.00000000
Si       3.57905961      -0.77294421      -1.06729796       0.00000000
Si       2.70785412       2.80719054       0.15041741       0.00000000
