10
Lattice="16.28999089631971 0.0 0.0 0.0 16.28999089631971 0.0 0.0 0.0 34.31052061344573" Properties=species:S:1:pos:R:3:initial_magmoms:R:1 pbc="T T T"
Si      -1.16906814       1.96157664       0.63344946       0.00000000
Si       0.21993129      -1.36394541       1.92680584       0.00000000
Si      -0.05142753      -0.94306068      -2.32090215       0.00000000
Si       2.18478222       0.41620950       2.10171068       0.00000000
Si      -2.95013529       0.79540812       1.75668046       0.00000000
Si      -1.50143301      -0.53993205       3.27029336       0.00000000
Si      -1.28756160       3.43469763      -1.20337356       0.00000000
Si       0.91531881       0.80244540      -3.77295851       0.00000000
Si       1.21668381      -3.07781631      -2.27983244       0.00000000
Si       0.02476080       3.58044426       1.89825261       0.00000000
