10
Lattice="16.28999089631971 0.0 0.0 0.0 16.28999089631971 0.0 0.0 0.0 34.31052061344573" Properties=species:S:1:pos:R:3:initial_magmoms:R:1 pbc="T T T"
Si      -1.35591444      -1.35793440      -1.35509477       0.00000000
Si      -1.35650088       1.35741312       1.35694754       0.00000000
Si       1.35744570       1.35633798      -1.35859444       0.00000000
Si       1.35840681      -1.35824391       1.35687892       0.00000000
Si      -0.00922014      -2.70604593      -2.70840539       0.00000000
Si      -0.00009774       2.71334385       2.71427249       0.00000000
Si      -2.71396287      -2.71428867      -0.00020586       0.00000000
Si      -2.71360449       2.71494027      -0.00065190       0.00000000
Si       0.00032580      -2.71541268       2.71324318       0.00000000
Si      -2.71371852      -0.00151497       2.71506163       0.00000000
