10
Lattice="16.28999089631971 0.0 0.0 0.0 16.28999089631971 0.0 0.0 0.0 34.31052061344573" Properties=species:S:1:pos:R:3:initial_magmoms:R:1 pbc="T T T"
Si      -0.83198473      -0.00342090      -2.15518225       0.00000000
Si      -0.93373207       1.93772808       0.97778176       0.00000000
Si       0.38380543      -1.38478032       1.89675526       0.00000000
Si       2.35151200       0.00215028      -0.58753368       0.00000000
Si       2.91794788       1.90703772       0.66600189       0.00000000
Si       1.08819969       3.01804830       1.72194306       0.00000000
Si      -1.42748197       3.18832767      -1.26386304       0.00000000
Si       0.17312360       0.14784804       3.71219454       0.00000000
Si      -1.88397664       1.12384710       3.03493880       0.00000000
Si       0.93282730      -0.34285563      -3.67692331       0.00000000
