10
Lattice="16.28999089631971 0.0 0.0 0.0 16.28999089631971 0.0 0.0 0.0 34.31052061344573" Properties=species:S:1:pos:R:3:initial_magmoms:R:1 pbc="T T T"
Si       1.85324814      -1.42034139      -0.12739503       0.00000000
Si      -1.25608932      -1.08800910      -1.65328767       0.00000000
Si       0.49096431       2.36038842       0.03331553       0.00000000
Si      -0.56620782      -0.97756290       2.37003485       0.00000000
Si       1.74570156      -1.58835645       2.22744024       0.00000000
Si      -1.26558639       3.32921988      -1.25020745       0.00000000
Si      -0.54273393      -3.34097149      -1.84244168       0.00000000
Si      -1.23636213       0.12367368      -3.66433134       0.00000000
Si       3.58762815      -0.49026384      -1.40831042       0.00000000
Si       1.29806865      -3.70007150      -0.42960227       0.00000000
