10
Lattice="16.28999089631971 0.0 0.0 0.0 16.28999089631971 0.0 0.0 0.0 34.31052061344573" Properties=species:S:1:pos:R:3:initial_magmoms:R:1 pbc="T T T"
Si      -1.35569127      -1.35663534       1.35674167       0.00000000
Si       1.35762489      -1.35790596      -1.35708478       0.00000000
Si       1.35705474       1.35827953       1.35790823       0.00000000
Si      -1.35851270       1.35806450      -1.35670736       0.00000000
Si       0.00029322       2.71276045       2.71180213       0.00000000
Si       2.71371852       0.00016156      -2.71451267       0.00000000
Si      -0.00154755      -2.71440684       2.71458129       0.00000000
Si       2.71492398      -2.71426023       0.00006862       0.00000000
Si      -0.00061902      -2.71492812      -2.71454698       0.00000000
Si      -2.71312617      -0.00234731       2.71653699       0.00000000
