10
Lattice="16.28999089631971 0.0 0.0 0.0 16.28999089631971 0.0 0.0 0.0 34.31052061344573" Properties=species:S:1:pos:R:3:initial_magmoms:R:1 pbc="T T T"
Si      -1.35714596       1.35752715      -1.35715340       0.00000000
Si       1.35681039       1.35845568       1.35711909       0.00000000
Si      -1.35911054      -1.35723393       1.35629564       0.00000000
Si       1.35782037      -1.35734796      -1.35756513       0.00000000
Si      -2.71102157      -0.00438201       2.71416956       0.00000000
Si       2.71433754      -0.00034209      -2.71389508       0.00000000
Si      -0.00009774       2.71479366      -2.71468422       0.00000000
Si      -0.00102627       2.71531494       2.71444404       0.00000000
Si      -2.71463898       2.71516833       0.00020586       0.00000000
Si      -2.71506804      -2.71477737      -0.00010293       0.00000000
