10
Lattice="16.28999089631971 0.0 0.0 0.0 16.28999089631971 0.0 0.0 0.0 34.31052061344573" Properties=species:S:1:pos:R:3:initial_magmoms:R:1 pbc="T T T"
Si      -0.30844300       0.83017098      -2.17892514       0.00000000
Si       0.18615397       1.93948740       1.39410585       0.00000000
Si       2.01919274      -1.30965084      -0.09994660       0.00000000
Si      -2.11428792      -1.53409446       0.35446219       0.00000000
Si       0.98331164       0.61626699       3.30901139       0.00000000
Si      -3.60860220       0.36079092       0.60757104       0.00000000
Si       0.40139375      -1.70437383       3.34026829       0.00000000
Si      -1.17912789      -1.00206306      -3.46364899       0.00000000
Si      -1.97924382       2.71248048       2.02826756       0.00000000
Si      -2.05033338       2.57807169      -2.24593362       0.00000000
