10
Lattice="16.28999089631971 0.0 0.0 0.0 16.28999089631971 0.0 0.0 0.0 34.31052061344573" Properties=species:S:1:pos:R:3:initial_magmoms:R:1 pbc="T T T"
Si       1.35456563      -1.35358497       1.36048152       0.00000000
Si      -1.35261150      -1.35847197      -1.36810533       0.00000000
Si      -1.36293374       1.36121896       1.35958945       0.00000000
Si       1.37139320       1.34474261      -1.38611150       0.00000000
Si      -2.54534901       0.18932238      -2.71932643       0.00000000
Si      -2.71471614      -2.71322982       0.00078914       0.00000000
Si       2.71667027      -2.71127502       0.00202432       0.00000000
Si      -0.00248260      -2.71085148       2.71801234       0.00000000
Si       2.71280954       0.00343719       2.71794372       0.00000000
Si       2.71528562       2.71771513       0.00147535       0.00000000
