10
Lattice="16.28999089631971 0.0 0.0 0.0 16.28999089631971 0.0 0.0 0.0 34.31052061344573" Properties=species:S:1:pos:R:3:initial_magmoms:R:1 pbc="T T T"
Si      -1.35744466       1.35755973      -1.35729064       0.00000000
Si       1.35749302      -1.35764118      -1.35735926       0.00000000
Si       1.35946899       1.35791811       1.35639857       0.00000000
Si      -1.35742837      -1.35907470       1.35749651       0.00000000
Si       2.71361271       0.00014661       2.71423818       0.00000000
Si       0.00203409       2.71220614       2.71619388       0.00000000
Si       2.71454124      -0.00037467      -2.71489008       0.00000000
Si       2.71516026       2.71455345      -0.00034311       0.00000000
Si       2.71463898      -2.71516833      -0.00020586       0.00000000
Si      -0.00295812       2.71442926      -2.71578216       0.00000000
