10
Lattice="16.28999089631971 0.0 0.0 0.0 16.28999089631971 0.0 0.0 0.0 34.31052061344573" Properties=species:S:1:pos:R:3:initial_magmoms:R:1 pbc="T T T"
Si      -1.30925011      -1.88669151       0.96295961       0.00000000
Si      -0.05875803       1.98270477       1.52153520       0.00000000
Si       1.43873280      -0.65243079      -2.12317051       0.00000000
Si      -0.82683153       1.60938684      -2.69166185       0.00000000
Si       0.35549667       1.07621514       3.66367944       0.00000000
Si       0.55987101       3.84051641      -0.10612250       0.00000000
Si      -2.34665921       2.52491742       1.93634962       0.00000000
Si      -3.47464790      -1.11369843       1.59712132       0.00000000
Si      -1.58470260       3.44575449      -1.36538793       0.00000000
Si       3.18660093      -1.49219658       2.12118050       0.00000000
