10
Lattice="10.86 0.0 0.0 0.0 10.86 0.0 0.0 0.0 10.86" Properties=species:S:1:pos:R:3:initial_magmoms:R:1 pbc="T T T"
Si      -1.20101826      -1.10827386       1.35185280       0.00000000
Si       1.51398174      -1.10827386      -1.36314720       0.00000000
Si      -1.20101826       1.60672614      -1.36314720       0.00000000
Si       1.52147514       1.67362374       1.08893220       0.00000000
Si      -2.55851826      -2.46577386      -0.00564720       0.00000000
Si       0.15648174      -2.46577386       2.70935280       0.00000000
Si       0.15648174      -2.46577386      -2.72064720       0.00000000
Si      -2.55851826       0.24922614       2.70935280       0.00000000
Si      -2.55851826       0.24922614      -2.72064720       0.00000000
Si       2.87148174      -2.46577386      -0.00564720       0.00000000
