10
Lattice="10.86 0.0 0.0 0.0 10.86 0.0 0.0 0.0 10.86" Properties=species:S:1:pos:R:3:initial_magmoms:R:1 pbc="T T T"
Si       1.12111038       1.54276074      -1.17482394       0.00000000
Si      -1.49314140      -1.10689464      -1.37131392       0.00000000
Si      -1.61348106       1.46579592       1.41347244       0.00000000
Si       0.35897730      -3.33153306      -0.66009252       0.00000000
Si       2.60139354      -2.33586654       0.17639898       0.00000000
Si       2.41168020       0.09350460      -2.65508538       0.00000000
Si       2.41168020       2.80850460       0.05991462       0.00000000
Si      -0.30331980      -2.62149540      -2.65508538       0.00000000
Si      -0.30331980       2.80850460      -2.65508538       0.00000000
Si      -0.30331980       2.80850460       2.77491462       0.00000000
