10
Lattice="10.86 0.0 0.0 0.0 10.86 0.0 0.0 0.0 10.86" Properties=species:S:1:pos:R:3:initial_magmoms:R:1 pbc="T T T"
Si      -1.23592230       1.36554726      -1.24418676       0.00000000
Si      -1.23592230      -1.34945274       1.47081324       0.00000000
Si       1.47907770       1.36554726       1.47081324       0.00000000
Si       0.72491586      -3.01521384      -1.78392876       0.00000000
Si      -2.59342230       0.00804726      -2.60168676       0.00000000
Si      -2.59342230      -2.70695274       0.11331324       0.00000000
Si      -2.59342230       2.72304726       0.11331324       0.00000000
Si       0.16891644       2.73783858      -2.60562894       0.00000000
Si       2.48482230      -2.86145796      -0.03660906       0.00000000
Si      -2.59342230       0.00804726       2.82831324       0.00000000
