10
Lattice="16.290000149 0.0 0.0 0.0 16.290000149 0.0 0.0 0.0 29.1751946751" Properties=species:S:1:pos:R:3:initial_magmoms:R:1 pbc="T T T"
Si      -1.34708690      -1.32809113       1.38087655       0.00000000
Si       1.36179514       1.36871839       1.36287546       0.00000000
Si      -1.38594181       1.33871221      -1.37194311       0.00000000
Si       1.38495952      -1.37199268      -1.35010839       0.00000000
Si       2.68561829       0.11021814      -2.62604614       0.00000000
Si      -2.67836924      -2.68897403       0.00299629       0.00000000
Si      -2.60391417      -0.15192054      -2.77136633       0.00000000
Si      -0.03927519       2.79911073      -2.60513482       0.00000000
Si      -2.70164765       0.06103863       2.71059440       0.00000000
Si       0.02205666      -2.67631670       2.74478773       0.00000000
