10
Lattice="16.290000149 0.0 0.0 0.0 16.290000149 0.0 0.0 0.0 29.1751946751" Properties=species:S:1:pos:R:3:initial_magmoms:R:1 pbc="T T T"
Si      -1.33564969      -1.36317816       1.36936694       0.00000000
Si       1.34991973      -1.35017549      -1.37327641       0.00000000
Si       1.35913987       1.34723188       1.36729550       0.00000000
Si      -1.36886500       1.34405533      -1.36373612       0.00000000
Si      -2.69638598      -2.70664868      -0.00863586       0.00000000
Si       2.71406063       2.69316056      -0.00732297       0.00000000
Si      -0.00956223       2.73456974       2.68006256       0.00000000
Si       2.72406269      -2.69633711      -0.03667322       0.00000000
Si      -0.01816335       2.70785414      -2.72026598       0.00000000
Si      -2.76079665      -0.00074934       2.66812990       0.00000000
