10
Lattice="16.290000149 0.0 0.0 0.0 16.290000149 0.0 0.0 0.0 29.1751946751" Properties=species:S:1:pos:R:3:initial_magmoms:R:1 pbc="T T T"
Si      -1.34601013      -1.37819917       1.31177510       0.00000000
Si       1.30331404      -1.34674318      -1.43308556       0.00000000
Si       1.22785876       1.43583482       1.42620022       0.00000000
Si      -1.40007664       1.33998446      -1.36151881       0.00000000
Si       0.19965024      -2.70425405       2.49284533       0.00000000
Si       2.64212399       2.71743266       0.04320846       0.00000000
Si      -2.71142165      -0.01036044       2.65791859       0.00000000
Si      -0.29447433       2.75152764       2.62378361       0.00000000
Si       2.65963574       0.00682551      -2.76755897       0.00000000
Si      -0.06442695       2.70316262      -2.73088575       0.00000000
