10
Lattice="16.290000149 0.0 0.0 0.0 16.290000149 0.0 0.0 0.0 29.1751946751" Properties=species:S:1:pos:R:3:initial_magmoms:R:1 pbc="T T T"
Si       1.36801792       1.34943103       1.33800360       0.00000000
Si       1.44217000      -1.33439536      -1.28096610       0.00000000
Si      -1.35050617      -1.38729388       1.33491103       0.00000000
Si      -1.37746612       1.33967332      -1.35892222       0.00000000
Si       0.11836314      -2.66993950      -2.62032635       0.00000000
Si       0.03337821       2.74458810      -2.61660943       0.00000000
Si       0.00285075       2.69742854       2.68796904       0.00000000
Si       2.69332346      -0.03358998       2.69788860       0.00000000
Si      -2.71311581      -0.02441871       2.68058771       0.00000000
Si      -2.79630885      -0.09138690      -2.59375066       0.00000000
