10
Lattice="16.290000149 0.0 0.0 0.0 16.290000149 0.0 0.0 0.0 29.1751946751" Properties=species:S:1:pos:R:3:initial_magmoms:R:1 pbc="T T T"
Si      -1.37663370       1.45192771      -1.16268986       0.00000000
Si       1.52645446      -1.26337096      -1.21689737       0.00000000
Si       0.84844837       1.65708398       1.39810450       0.00000000
Si      -0.91955422      -1.72959077       1.28542990       0.00000000
H        0.23570001       2.96319990       0.95662546       0.00000000
Si       2.56016900      -2.09002331       0.73740305       0.00000000
Si       0.11704365      -2.65580759      -2.52242898       0.00000000
Si      -2.61093563       0.10121857      -2.61593548       0.00000000
Si       0.09008370       1.06050996       3.55079624       0.00000000
Si       0.73257760      -3.38296062       1.37937403       0.00000000
