10
Lattice="16.290000149 0.0 0.0 0.0 16.290000149 0.0 0.0 0.0 29.1751946751" Properties=species:S:1:pos:R:3:initial_magmoms:R:1 pbc="T T T"
Si      -0.90262891       0.90508870      -0.80625650       0.00000000
Si       0.90855847      -1.55776384       1.50091789       0.00000000
H       -2.01178244      -0.34371900       1.42138631       0.00000000
Si       1.92529883       0.60051457       1.88527190       0.00000000
Si       1.88061536      -1.95908755      -0.65472054       0.00000000
Si      -1.39903408      -1.64983493       1.86286536       0.00000000
Si      -2.21532599      -0.56008279      -2.08722260       0.00000000
Si       0.44427717       2.21806271      -2.19487907       0.00000000
Si      -2.04428099       2.33038226       0.65982620       0.00000000
Si       3.05142654       2.04413438       0.34094132       0.00000000
