10
Lattice="16.290000149 0.0 0.0 0.0 16.290000149 0.0 0.0 0.0 29.1751946751" Properties=species:S:1:pos:R:3:initial_magmoms:R:1 pbc="T T T"
Si       1.26363160       1.36765954      -1.42147383       0.00000000
Si       1.37458279      -1.26384337       1.41720550       0.00000000
Si      -0.80948269      -1.85966642      -1.18159918       0.00000000
Si      -1.42620580       1.37611405       1.29347350       0.00000000
Si      -2.68441283      -2.66238875       0.01311717       0.00000000
Si      -0.05352894      -2.65382021       2.69768438       0.00000000
Si       2.66154167      -2.71295291       0.08912730       0.00000000
Si      -0.08171064       2.74747143       2.65368818       0.00000000
Si       2.65476503       2.75046879      -0.08854672       0.00000000
Si      -0.18336024       2.78526423      -2.63982996       0.00000000
