10
Lattice="16.290000149 0.0 0.0 0.0 16.290000149 0.0 0.0 0.0 29.1751946751" Properties=species:S:1:pos:R:3:initial_magmoms:R:1 pbc="T T T"
Si      -0.93572530       0.81209886       1.99397868       0.00000000
Si       1.36095295       1.38330772      -1.33494021       0.00000000
Si      -1.87064099      -0.88876123      -1.12639592       0.00000000
Si       1.83965089      -1.17691016       0.93022191       0.00000000
H        2.64168905       1.42354402      -0.51447538       0.00000000
H       -2.90095092       0.23919585      -1.08508384       0.00000000
Si       0.52352965      -2.60340918       2.27645291       0.00000000
Si       1.95206818      -0.14479367      -3.09058672       0.00000000
Si       0.39719256       2.78744057       2.48514308       0.00000000
Si      -0.64896770      -1.01231437       3.56322488       0.00000000
