10
Lattice="16.290000149 0.0 0.0 0.0 16.290000149 0.0 0.0 0.0 29.1751946751" Properties=species:S:1:pos:R:3:initial_magmoms:R:1 pbc="T T T"
Si       1.36293544      -1.33913575       1.36382365       0.00000000
Si       1.35627283       1.36938628      -1.34640606       0.00000000
Si      -1.35516511       1.35290080       1.36609932       0.00000000
Si      -1.33434649      -1.40506138      -1.33849958       0.00000000
Si       2.70721883      -2.67037085      -0.02252325       0.00000000
Si      -2.76708459      -0.08584830      -2.62212062       0.00000000
Si       0.01023012      -2.72961758       2.69076985       0.00000000
Si      -2.72427446       2.70045848       0.02459469       0.00000000
Si       0.01005093       2.71336016      -2.71230115       0.00000000
Si       2.71248050       2.71777475       0.02208562       0.00000000
