10
Lattice="16.290000149 0.0 0.0 0.0 16.290000149 0.0 0.0 0.0 29.1751946751" Properties=species:S:1:pos:R:3:initial_magmoms:R:1 pbc="T T T"
Si       1.37663370      -1.45192771       1.16268986       0.00000000
Si      -1.23430193      -1.35070915      -1.45324562       0.00000000
Si       1.40879016       1.29490840      -1.38929360       0.00000000
Si      -1.21558653       1.29316537       1.59979262       0.00000000
H        1.61233372       1.51127218       2.11931532       0.00000000
Si       2.22508207       0.20515626       2.56079436       0.00000000
Si      -2.50553397       2.64072305       0.10187978       0.00000000
Si      -2.55367092      -2.67618638      -0.08950950       0.00000000
Si       0.06198345       2.63195903      -2.76475815       0.00000000
Si      -2.70236604      -0.05900564      -2.72353360       0.00000000
