10
Lattice="16.290000149 0.0 0.0 0.0 16.290000149 0.0 0.0 0.0 29.1751946751" Properties=species:S:1:pos:R:3:initial_magmoms:R:1 pbc="T T T"
Si       0.91797409       0.07667703      -1.21068305       0.00000000
H       -1.26382708      -1.75479140      -0.41802219       0.00000000
H        1.91324423       0.41629095       1.23203930       0.00000000
Si      -1.78538402      -2.01782603       0.97176738       0.00000000
Si       0.02547756       1.49464009      -2.80551590       0.00000000
Si       1.18068292       2.94684637       0.25694594       0.00000000
Si       1.26788329      -2.04084380      -2.14881144       0.00000000
Si       2.79671610       1.43052265      -0.82201111       0.00000000
Si      -2.64846080      -0.14856480       2.08305055       0.00000000
H       -2.88857541      -0.91605187      -1.57966174       0.00000000
