10
Lattice="16.290000149 0.0 0.0 0.0 16.290000149 0.0 0.0 0.0 29.1751946751" Properties=species:S:1:pos:R:3:initial_magmoms:R:1 pbc="T T T"
Si      -2.24637473       0.50604885      -0.27497621       0.00000000
Si       0.93572530      -0.81209886      -1.99397868       0.00000000
Si       0.28675760      -1.82441323       1.56924620       0.00000000
Si       1.33291786       1.97534171       0.49116440       0.00000000
Si       2.96896656       0.79485427       1.70116184       0.00000000
Si       1.63150542      -0.61016476       3.05286028       0.00000000
Si       2.77537620      -1.98900902      -1.06375677       0.00000000
Si      -0.93491569      -1.70086009      -3.12037460       0.00000000
H       -1.96522562      -0.57290302      -3.07906252       0.00000000
Si      -2.97624819       1.14329737       1.90376314       0.00000000
