10
Lattice="16.290000149 0.0 0.0 0.0 16.290000149 0.0 0.0 0.0 29.1751946751" Properties=species:S:1:pos:R:3:initial_magmoms:R:1 pbc="T T T"
Si      -1.37964898       1.34601013       1.32166549       0.00000000
Si      -1.36974466      -1.36267480      -1.32677115       0.00000000
Si       1.35270532       1.39048183      -1.32694620       0.00000000
Si       1.35609364      -1.32822145       1.38824329       0.00000000
Si       0.03982905       2.65733885       2.63419915       0.00000000
Si       0.01544292      -2.67742442      -2.68499317       0.00000000
Si       2.70283682      -2.67660992       0.02153129       0.00000000
Si      -2.72534960       0.00770517      -2.66538744       0.00000000
Si      -2.72914517      -0.01133784       2.67527783       0.00000000
Si       2.69698871       0.05924673      -2.71329310       0.00000000
