10
Lattice="16.290000149 0.0 0.0 0.0 16.290000149 0.0 0.0 0.0 29.1751946751" Properties=species:S:1:pos:R:3:initial_magmoms:R:1 pbc="T T T"
Si       1.37083609      -1.34617303      -1.33838288       0.00000000
Si       1.37764531       1.33636645       1.34407204       0.00000000
Si      -1.35070165      -1.36379881       1.35652985       0.00000000
Si      -1.34573320       1.35904213      -1.36869591       0.00000000
Si      -0.00102627       2.70210377       2.65622642       0.00000000
Si      -0.01387908      -2.69770547      -2.66282002       0.00000000
Si      -2.72135855      -0.00682551       2.68969037       0.00000000
Si       2.74220976       0.01138671      -2.67603638       0.00000000
Si      -2.69180849       0.00065160      -2.73036059       0.00000000
Si       2.73496071       2.69104286      -0.01333306       0.00000000
