10
Lattice="16.290000149 0.0 0.0 0.0 16.290000149 0.0 0.0 0.0 29.1751946751" Properties=species:S:1:pos:R:3:initial_magmoms:R:1 pbc="T T T"
Si      -1.39556431       1.28166463      -1.36073108       0.00000000
Si       1.43860249      -1.37246509      -1.23052219       0.00000000
Si      -1.37875303      -1.31518945       1.35594635       0.00000000
Si       0.87770521       1.88654492       1.07498922       0.00000000
Si      -2.43144542       0.15112233       2.83854222       0.00000000
Si       0.05536971      -2.72186354      -2.57258114       0.00000000
Si      -2.57984732       2.73282671       0.05061896       0.00000000
Si      -0.01339038       2.61584822      -2.70386952       0.00000000
Si       2.77886226      -0.04031775      -2.60595756       0.00000000
Si       2.70387938       2.70785414      -0.09721175       0.00000000
