10
Lattice="16.290000149 0.0 0.0 0.0 16.290000149 0.0 0.0 0.0 29.1751946751" Properties=species:S:1:pos:R:3:initial_magmoms:R:1 pbc="T T T"
Si      -1.42966254       1.21586932      -1.38526742       0.00000000
Si       1.14165208      -1.42529356      -1.46608271       0.00000000
Si      -1.47505951      -1.20660031       1.39002298       0.00000000
Si       1.51630579       1.33377634       1.29488267       0.00000000
H        0.03249855      -2.67410126       0.76156011       0.00000000
H       -2.61608769      -0.24863427       1.68580110       0.00000000
H        2.04428099      -2.33038226      -0.65982620       0.00000000
Si      -0.18857304      -1.05445171       3.41769900       0.00000000
Si       0.13885596       2.79808446       2.51606879       0.00000000
Si      -0.06349842       2.64898208      -2.68125874       0.00000000
