10
Lattice="16.290000149 0.0 0.0 0.0 16.290000149 0.0 0.0 0.0 29.1751946751" Properties=species:S:1:pos:R:3:initial_magmoms:R:1 pbc="T T T"
Si       1.21943683      -1.41393943       1.44754625       0.00000000
Si      -1.48742362      -1.25501419      -1.37301384       0.00000000
Si      -1.47950668       1.29936877       1.34054184       0.00000000
Si       1.61668477       1.48776734      -0.93751571       0.00000000
Si       2.56673387      -2.76633525       0.10418462       0.00000000
H        1.16103718      -1.10644939      -3.45606439       0.00000000
Si       0.88905934       3.67793994      -0.53521895       0.00000000
Si      -2.79754689      -2.62251083       0.11101162       0.00000000
Si      -0.18233397       2.58416743       2.84626197       0.00000000
H        3.07428141      -0.69015844      -2.22402509       0.00000000
