10
Lattice="16.290000149 0.0 0.0 0.0 16.290000149 0.0 0.0 0.0 29.1751946751" Properties=species:S:1:pos:R:3:initial_magmoms:R:1 pbc="T T T"
Si       1.39162213       1.43624044      -1.17686900       0.00000000
Si       1.69826510      -1.60106266       0.01633811       0.00000000
Si      -0.95231341       1.26816022       1.75733868       0.00000000
Si      -1.59529600      -0.81116056      -1.56233167       0.00000000
Si      -2.06821100       1.21885039      -2.62445464       0.00000000
Si      -0.16847118       2.71852409      -2.30819553       0.00000000
Si       0.62934787      -3.36096912      -1.04887742       0.00000000
Si      -2.39930525       2.68576490       0.53898255       0.00000000
Si      -0.30120210      -2.31498821      -2.87941666       0.00000000
Si       2.35370954      -2.02253384       2.14713095       0.00000000
