10
Lattice="16.290000149 0.0 0.0 0.0 16.290000149 0.0 0.0 0.0 29.1751946751" Properties=species:S:1:pos:R:3:initial_magmoms:R:1 pbc="T T T"
Si      -2.07122465       0.71791823      -0.84301725       0.00000000
Si      -0.78429835      -1.50418278       1.70543600       0.00000000
Si       1.05098194      -0.66405860      -2.07070944       0.00000000
Si       0.92036872       2.08634503       0.81366700       0.00000000
H       -1.38160378       2.28625591       1.73309409       0.00000000
Si      -1.31285998       1.31449224      -2.99570899       0.00000000
Si      -2.66233988       2.24601961       0.91262926       0.00000000
H        0.36957123      -3.57770431      -0.52203176       0.00000000
Si      -2.33432444      -2.81981206       0.51966857       0.00000000
Si      -3.37233628      -1.26488267      -0.95443732       0.00000000
