10
Lattice="16.290000149 0.0 0.0 0.0 16.290000149 0.0 0.0 0.0 29.1751946751" Properties=species:S:1:pos:R:3:initial_magmoms:R:1 pbc="T T T"
Si      -0.34520139       0.88609456       2.13320271       0.00000000
Si      -1.85526812      -0.93123415      -1.10582740       0.00000000
Si       1.05358834       1.76208932      -1.18535898       0.00000000
Si       1.60228441      -1.77751595      -0.08145714       0.00000000
Si       2.13723173       0.34033068      -2.68152132       0.00000000
Si      -0.67098511      -2.38239623      -2.51717745       0.00000000
Si       1.27612603       2.57105072       2.20348575       0.00000000
Si       2.24546249      -2.17399826       2.06528286       0.00000000
Si       3.42845859      -0.95620672      -1.25365812       0.00000000
Si      -3.15814233      -2.16166673       0.39905831       0.00000000
