10
Lattice="16.290000149 0.0 0.0 0.0 16.290000149 0.0 0.0 0.0 29.1751946751" Properties=species:S:1:pos:R:3:initial_magmoms:R:1 pbc="T T T"
Si      -1.41832144       1.37318185      -1.25467925       0.00000000
Si      -1.30287421      -1.23043258       1.50488572       0.00000000
Si       1.18428301      -1.45116208      -1.41135004       0.00000000
Si       1.85526812       0.93123415       1.10582740       0.00000000
Si       3.45755253      -0.84628180       1.02437026       0.00000000
Si      -0.04292415       2.69327459      -2.61829867       0.00000000
Si       2.57984732      -2.73282671      -0.05061896       0.00000000
Si       2.56645694      -0.11697849      -2.75448848       0.00000000
Si       0.14840190      -2.58170438       2.78792325       0.00000000
Si      -2.77689117      -0.01032786      -2.60134788       0.00000000
