10
Lattice="16.290000149 0.0 0.0 0.0 16.290000149 0.0 0.0 0.0 29.1751946751" Properties=species:S:1:pos:R:3:initial_magmoms:R:1 pbc="T T T"
Si      -1.31536864       1.42353424       1.29601904       0.00000000
Si       1.26436465       1.48343257      -1.32875507       0.00000000
Si       1.44699184      -1.41760468       1.21835613       0.00000000
Si      -1.37531584      -1.03824316      -1.62479577       0.00000000
Si       0.33109425      -1.46691451      -3.16343718       0.00000000
Si      -0.42451740       2.41443866      -2.63624142       0.00000000
Si      -2.20797920       0.80760934      -2.74766148       0.00000000
Si       2.23083407       0.03275919      -2.84717807       0.00000000
Si       2.39930525      -2.68576490      -0.53898255       0.00000000
Si      -2.61602741      -0.05867658       2.57195679       0.00000000
