10
Lattice="16.290000149 0.0 0.0 0.0 16.290000149 0.0 0.0 0.0 29.1751946751" Properties=species:S:1:pos:R:3:initial_magmoms:R:1 pbc="T T T"
Si      -0.56268919       1.03353535       2.01040431       0.00000000
Si      -1.62132742      -1.68495617      -0.07028304       0.00000000
Si       2.19335078      -0.71060239      -0.47301743       0.00000000
Si       0.03863988       2.14630852      -0.97795253       0.00000000
Si       0.65301724       2.83909127       1.16890417       0.00000000
Si       1.90431731       0.16531092      -2.71463516       0.00000000
Si       1.95624983      -2.74769949       0.73789902       0.00000000
Si      -3.44745273      -0.23206734       0.10187978       0.00000000
Si      -0.22253769      -0.80896141      -3.38884474       0.00000000
Si      -2.79533145       1.53648910       1.68758079       0.00000000
