10
Lattice="16.290000149 0.0 0.0 0.0 16.290000149 0.0 0.0 0.0 29.1751946751" Properties=species:S:1:pos:R:3:initial_magmoms:R:1 pbc="T T T"
Si       0.60680251       0.08728182       1.39746265       0.00000000
H        2.11550087      -0.76101994      -0.29621575       0.00000000
Si       1.39589011      -0.83118097      -1.62228670       0.00000000
Si      -0.47247516      -2.30223314      -1.78350883       0.00000000
Si      -1.09960759       0.51595317       2.93610407       0.00000000
H       -3.11753136      -0.65192581       0.74411334       0.00000000
Si       1.07971750      -1.94272913       2.45958561       0.00000000
Si       1.06381846       1.11909043      -3.00236093       0.00000000
H       -1.70984729      -2.67962357       1.19408237       0.00000000
Si       2.50654232       1.58695552       1.71372176       0.00000000
