10
Lattice="16.290000149 0.0 0.0 0.0 16.290000149 0.0 0.0 0.0 29.1751946751" Properties=species:S:1:pos:R:3:initial_magmoms:R:1 pbc="T T T"
Si      -1.35034327      -1.34364808      -1.31168758       0.00000000
Si       1.39556431      -1.28166463       1.36073108       0.00000000
Si       1.38217393       1.33418359      -1.34313844       0.00000000
Si      -1.18428301       1.45116208       1.41135004       0.00000000
Si       2.27326952       0.60488029       2.43572030       0.00000000
Si       0.67098511       2.38239623       2.51717745       0.00000000
Si      -2.66142764       0.08351883      -2.60826240       0.00000000
Si       0.08759133      -2.67838553      -2.59306213       0.00000000
Si       0.01681128      -2.59685408       2.71667743       0.00000000
Si      -2.72324819      -2.59478525       0.12163139       0.00000000
