10
Lattice="16.290000149 0.0 0.0 0.0 16.290000149 0.0 0.0 0.0 29.1751946751" Properties=species:S:1:pos:R:3:initial_magmoms:R:1 pbc="T T T"
Si      -1.35648460      -1.33897285       1.31623599       0.00000000
Si      -1.40654377       1.36415719      -1.25346264       0.00000000
Si       1.33949413      -1.15360894      -1.55710640       0.00000000
Si       1.42065091       1.46023561       1.22605546       0.00000000
Si       0.42658623       2.38399265      -2.19669377       0.00000000
Si       2.17324892       0.84297493      -2.65162141       0.00000000
Si       0.07625349      -2.65818593       2.59985703       0.00000000
Si      -2.65787642      -2.63516816      -0.16123671       0.00000000
Si       2.76542301      -2.52035624      -0.22111005       0.00000000
Si      -2.69267186       0.10200798       2.60598382       0.00000000
