10
Lattice="16.290000149 0.0 0.0 0.0 16.290000149 0.0 0.0 0.0 29.1751946751" Properties=species:S:1:pos:R:3:initial_magmoms:R:1 pbc="T T T"
Si       1.36009121       1.34962651      -1.35428336       0.00000000
Si       1.36838282      -1.34232859       1.35898057       0.00000000
Si      -1.33915022       1.36335898       1.37178848       0.00000000
Si      -1.34782810      -1.37829691      -1.35174512       0.00000000
Si      -2.68966799      -0.04520475       2.67784524       0.00000000
Si       2.66812935      -2.69964398      -0.05928400       0.00000000
Si      -0.02864271       2.69860142      -2.68446801       0.00000000
Si      -2.69066168      -0.02091636      -2.72084948       0.00000000
Si       2.67852237      -0.01334151      -2.74497737       0.00000000
Si       2.72695254       0.04118112       2.70564920       0.00000000
