10
Lattice="16.290000149 0.0 0.0 0.0 16.290000149 0.0 0.0 0.0 29.1751946751" Properties=species:S:1:pos:R:3:initial_magmoms:R:1 pbc="T T T"
Si       0.93054997      -1.04598091       1.83053924       0.00000000
Si      -0.77509450      -2.04006188      -0.88549633       0.00000000
Si      -1.29409390       1.50382765       1.31708499       0.00000000
Si       1.98840629       0.60145939      -1.17196757       0.00000000
H       -0.25831053       2.68553684      -1.43871637       0.00000000
Si      -0.16894359      -1.50845401      -3.06622543       0.00000000
Si       2.26202942      -2.59134806       0.66790773       0.00000000
Si      -1.00921438      -2.07259301       2.73123585       0.00000000
Si       1.99946720       0.71392555       2.89575477       0.00000000
Si       0.30120210       2.31498821       2.87941666       0.00000000
