10
Lattice="16.290000149 0.0 0.0 0.0 16.290000149 0.0 0.0 0.0 29.1751946751" Properties=species:S:1:pos:R:3:initial_magmoms:R:1 pbc="T T T"
H        0.90262891      -0.90508870       0.80625650       0.00000000
Si       1.34690608       1.31297401      -1.38862257       0.00000000
Si      -1.14165208       1.42529356       1.46608271       0.00000000
Si      -1.31269708      -1.46517148      -1.28096610       0.00000000
H       -1.10915353      -1.24880770       2.22764281       0.00000000
Si      -2.57131462       2.64116288       0.08081529       0.00000000
Si      -0.49640517      -2.55492362       2.66912186       0.00000000
Si      -2.65950380      -0.12812085      -2.65643065       0.00000000
Si      -0.00759114       2.67180437      -2.69249119       0.00000000
Si       2.73246834       2.66973554      -0.09744515       0.00000000
