10
Lattice="16.290000149 0.0 0.0 0.0 16.290000149 0.0 0.0 0.0 29.1751946751" Properties=species:S:1:pos:R:3:initial_magmoms:R:1 pbc="T T T"
Si      -0.83266336       1.84585250      -1.12286572       0.00000000
Si       1.70641010      -0.42867135      -1.53864142       0.00000000
Si       1.37531584       1.03824316       1.62479577       0.00000000
Si      -1.40696731      -1.73291393       0.90711515       0.00000000
H        1.09960759      -0.51595317      -2.93610407       0.00000000
H       -2.01792377      -1.16787898      -2.19199073       0.00000000
Si       2.17932509      -2.45868230      -0.47651845       0.00000000
Si       0.31162770      -3.36087138       0.79942951       0.00000000
Si       2.63968049       2.52167573       0.29604070       0.00000000
Si      -2.57351051       2.60224607       0.23850722       0.00000000
