10
Lattice="16.290000149 0.0 0.0 0.0 16.290000149 0.0 0.0 0.0 29.1751946751" Properties=species:S:1:pos:R:3:initial_magmoms:R:1 pbc="T T T"
Si       1.34428339      -1.33123510      -1.38634690       0.00000000
Si      -1.36293544       1.33913575      -1.36382365       0.00000000
Si      -1.35270532      -1.39048183       1.32694620       0.00000000
Si       1.37003788       1.34829073       1.35585882       0.00000000
Si      -2.73235430      -0.04447170       2.64861170       0.00000000
Si      -2.69728193      -0.06592563      -2.70232323       0.00000000
Si       2.68964192      -2.71151939      -0.03206354       0.00000000
Si      -2.71810055       2.69203655       0.00227567       0.00000000
Si      -0.00666261       2.70852203      -2.71022971       0.00000000
Si       2.71865857       2.70058880      -0.00180886       0.00000000
