10
Lattice="16.290000149 0.0 0.0 0.0 16.290000149 0.0 0.0 0.0 29.1751946751" Properties=species:S:1:pos:R:3:initial_magmoms:R:1 pbc="T T T"
Si      -1.34692237      -1.32962239       1.34631270       0.00000000
Si       1.31540122      -1.32346151      -1.40045602       0.00000000
Si      -1.20314683       1.39600414      -1.44182645       0.00000000
Si       1.42773706       1.40457268       1.24274076       0.00000000
Si       2.30462777       0.46346679      -2.55252611       0.00000000
Si       0.67178332       2.19872648      -2.63654280       0.00000000
Si      -2.64699470      -2.65896785      -0.07854546       0.00000000
Si      -2.70255989       0.06582789       2.63611888       0.00000000
Si       2.69912270      -2.64763326      -0.03593217       0.00000000
Si       0.02425581      -2.68983740       2.65910893       0.00000000
