10
Lattice="16.290000149 0.0 0.0 0.0 16.290000149 0.0 0.0 0.0 29.1751946751" Properties=species:S:1:pos:R:3:initial_magmoms:R:1 pbc="T T T"
Si       1.29166669       1.43837443       1.31340891       0.00000000
Si      -1.35488818       1.36663327      -1.33695330       0.00000000
Si      -1.30886893      -1.34762284       1.42170724       0.00000000
Si       1.42514695      -1.36242882      -1.29876297       0.00000000
Si       2.53074926       0.04911435       2.68653945       0.00000000
Si      -2.65212605      -2.69306439       0.03215106       0.00000000
Si       0.06441066      -2.70589934      -2.67676576       0.00000000
Si      -2.70907589      -0.00172674      -2.67574463       0.00000000
Si       0.02127474       2.70177797      -2.69870551       0.00000000
Si       2.76079665       0.00074934      -2.66812990       0.00000000
