10
Lattice="16.290000149 0.0 0.0 0.0 16.290000149 0.0 0.0 0.0 29.1751946751" Properties=species:S:1:pos:R:3:initial_magmoms:R:1 pbc="T T T"
H        0.52155693       0.26303463      -1.38978957       0.00000000
Si       1.68888206      -0.93100609       1.30748635       0.00000000
Si      -0.86307679       1.86926123       1.11128317       0.00000000
Si      -1.78346180      -1.60682932      -0.11142007       0.00000000
H        1.78538402       2.01782603      -0.97176738       0.00000000
H       -1.10319139       1.10177416      -2.55142912       0.00000000
H       -0.13611924      -0.64881442      -3.00592031       0.00000000
Si      -2.17320005       0.50176458       2.59530862       0.00000000
Si       2.65535147      -2.38167947      -0.21093666       0.00000000
Si       0.42451740      -2.41443866       2.63624142       0.00000000
