10
Lattice="16.290000149 0.0 0.0 0.0 16.290000149 0.0 0.0 0.0 29.1751946751" Properties=species:S:1:pos:R:3:initial_magmoms:R:1 pbc="T T T"
Si       1.27989228      -1.37118796       1.38745848       0.00000000
Si      -1.34474782      -1.21424847      -1.48361408       0.00000000
Si       1.33746114       1.40501903      -1.35169844       0.00000000
Si      -1.43114803       1.30768628       1.35383698       0.00000000
Si      -1.63150542       0.61016476      -3.05286028       0.00000000
Si      -0.29858756       2.58550647      -2.56169588       0.00000000
Si       2.60998708      -2.68538372      -0.03239322       0.00000000
Si      -2.82421036      -2.51782478      -0.11029391       0.00000000
Si      -0.06997044       2.70569409       2.67052519       0.00000000
Si       2.57996461      -0.04184249       2.81231663       0.00000000
