10
Lattice="16.290000149 0.0 0.0 0.0 16.290000149 0.0 0.0 0.0 29.1751946751" Properties=species:S:1:pos:R:3:initial_magmoms:R:1 pbc="T T T"
Si       1.32036967      -1.48841407      -1.20956856       0.00000000
Si       1.35918874       1.28325778       1.41066151       0.00000000
Si      -1.35053875      -1.39424158       1.31059059       0.00000000
Si      -1.38372148       1.32417174      -1.36452386       0.00000000
Si       2.69343749       2.62243263       0.08223904       0.00000000
Si      -2.69912270       2.64763326       0.03593217       0.00000000
Si      -2.67486689      -0.04220415       2.69504110       0.00000000
Si       0.02915910       2.70326361       2.69676244       0.00000000
Si       0.03424158      -2.75056328       2.64987790       0.00000000
Si      -2.68579748      -2.72049194      -0.09448679       0.00000000
