10
Lattice="16.290000149 0.0 0.0 0.0 16.290000149 0.0 0.0 0.0 29.1751946751" Properties=species:S:1:pos:R:3:initial_magmoms:R:1 pbc="T T T"
H       -1.19845531       0.47126970      -0.80993258       0.00000000
Si       1.33547050      -1.04308129      -1.63760368       0.00000000
Si       1.16831881       1.81983737       1.03618621       0.00000000
H       -1.71866018       0.68795929       1.53131844       0.00000000
Si      -0.68421259      -1.85227076       1.41975250       0.00000000
H       -0.55705285       2.18561303      -1.94537281       0.00000000
H        1.46601856      -1.08872587       2.58547658       0.00000000
Si      -3.03394737       1.12980925       0.91017855       0.00000000
H       -2.00189441       1.29222055      -2.47913299       0.00000000
H        1.99296749       1.40336722       2.48989864       0.00000000
