10
Lattice="16.290000149 0.0 0.0 0.0 16.290000149 0.0 0.0 0.0 29.1751946751" Properties=species:S:1:pos:R:3:initial_magmoms:R:1 pbc="T T T"
Si       1.05269239      -1.46631178      -1.48259587       0.00000000
Si      -1.30512223      -1.37697742       1.37581466       0.00000000
Si      -1.45127611       1.35127180      -1.28303754       0.00000000
Si       1.82206910       0.75551392       1.38205815       0.00000000
Si       2.15414075      -1.19475748       2.76213238       0.00000000
Si      -2.68257206       0.08733069       2.59700078       0.00000000
Si       0.28577547      -2.66580965       2.60091025       0.00000000
Si       2.43144542      -0.15112233      -2.83854222       0.00000000
Si       2.27427950      -2.99700165      -0.23795289       0.00000000
Si      -0.14840190       2.58170438      -2.78792325       0.00000000
