10
Lattice="16.290000149 0.0 0.0 0.0 16.290000149 0.0 0.0 0.0 29.1751946751" Properties=species:S:1:pos:R:3:initial_magmoms:R:1 pbc="T T T"
Si      -1.31149162      -1.36166482      -1.34419750       0.00000000
Si       1.31703022      -1.39149181       1.34115452       0.00000000
Si      -1.41851692       1.33107220       1.30194306       0.00000000
Si       1.31048164       1.28923948      -1.46927739       0.00000000
Si      -0.04582377       2.65854431       2.66524156       0.00000000
Si       2.69496875      -0.02658528       2.64563583       0.00000000
Si       2.68232771       2.69609276      -0.15850883       0.00000000
Si       2.64406250      -2.75035476      -0.02532407       0.00000000
Si      -2.76778506       2.64964997      -0.10771482       0.00000000
Si      -2.77091274      -0.04383639       2.64849500       0.00000000
