10
Lattice="16.290000149 0.0 0.0 0.0 16.290000149 0.0 0.0 0.0 29.1751946751" Properties=species:S:1:pos:R:3:initial_magmoms:R:1 pbc="T T T"
Si       1.30065877       1.48221082      -1.27593775       0.00000000
Si       1.37318185      -1.35047359       1.36134668       0.00000000
Si      -1.38495952       1.37199268       1.35010839       0.00000000
Si      -1.17343387      -1.47054718      -1.44672788       0.00000000
Si       2.61602741       0.05867658      -2.57195679       0.00000000
Si      -2.52822106      -0.06558354      -2.76352112       0.00000000
Si      -2.66332706      -2.66926313      -0.01327471       0.00000000
Si       0.01619226      -2.66431097       2.75992674       0.00000000
Si       2.71767701       0.02088378       2.72156135       0.00000000
Si      -0.02316438       2.74071108       2.71298385       0.00000000
