10
Lattice="16.290000149 0.0 0.0 0.0 16.290000149 0.0 0.0 0.0 29.1751946751" Properties=species:S:1:pos:R:3:initial_magmoms:R:1 pbc="T T T"
Si      -1.32380686      -1.33554413      -1.33936025       0.00000000
Si       1.31771799      -1.43418790       1.27516023       0.00000000
Si      -1.44217000       1.33439536       1.28096610       0.00000000
Si       1.30092609       1.28811547      -1.47125839       0.00000000
Si       2.63084806      -0.04858655       2.63842956       0.00000000
Si      -0.07415208       2.68382639       2.61896970       0.00000000
Si      -2.74206314       0.00615925      -2.59332179       0.00000000
Si       2.66210368       2.68612328      -0.15457018       0.00000000
Si      -0.15226263       2.67105503      -2.69420961       0.00000000
Si      -0.08192241      -2.76734523       2.60931271       0.00000000
