10
Lattice="16.290000149 0.0 0.0 0.0 16.290000149 0.0 0.0 0.0 29.1751946751" Properties=species:S:1:pos:R:3:initial_magmoms:R:1 pbc="T T T"
Si      -1.38627901      -1.27876501      -1.37587592       0.00000000
Si       1.20314683      -1.39600414       1.44182645       0.00000000
Si      -1.41819112       1.38191329       1.28548825       0.00000000
Si       1.87493015       0.80272234      -1.19471634       0.00000000
Si       2.51854805      -2.71946566       0.04137043       0.00000000
Si       2.63088389       0.00856854       2.68456721       0.00000000
Si       2.68441283       2.66238875      -0.01311717       0.00000000
Si       3.50777460      -0.93253735      -1.11069966       0.00000000
Si      -0.09878256       2.72466542       2.67893640       0.00000000
Si      -2.72374015      -2.68378404      -0.02417748       0.00000000
