10
Lattice="16.290000149 0.0 0.0 0.0 16.290000149 0.0 0.0 0.0 29.1751946751" Properties=species:S:1:pos:R:3:initial_magmoms:R:1 pbc="T T T"
Si       0.51684587      -0.63877978       2.23175652       0.00000000
Si       1.24602211       2.00028170      -0.54122904       0.00000000
Si      -1.98252560       1.42355053       0.03536034       0.00000000
Si      -1.24004368      -1.55479906      -1.43501113       0.00000000
Si       2.17911332      -1.35927019      -1.06048915       0.00000000
H       -1.11263959       1.13717233      -2.36427025       0.00000000
H       -2.68807808      -1.28013337      -1.00257639       0.00000000
H       -1.52464627       2.66980070      -0.70673992       0.00000000
Si       0.04935870       2.11647827      -2.53663730       0.00000000
H        3.37887183      -0.99608464      -0.17032479       0.00000000
