10
Lattice="16.290000149 0.0 0.0 0.0 16.290000149 0.0 0.0 0.0 29.1751946751" Properties=species:S:1:pos:R:3:initial_magmoms:R:1 pbc="T T T"
H        1.19975851       0.36318555       0.89016436       0.00000000
Si       0.87646717       1.46601856      -1.64136728       0.00000000
Si      -0.76338687      -2.11864484       1.17158829       0.00000000
Si       0.54903816      -2.38651760      -0.73973706       0.00000000
Si      -2.17911332       1.35927019       1.06048915       0.00000000
H        2.60744258      -1.66451222       1.34013339       0.00000000
Si      -3.41915700      -0.19552887      -0.37452197       0.00000000
H       -1.87847648      -1.58070016      -2.47163497       0.00000000
Si      -0.24509934      -1.21880152       3.26948902       0.00000000
Si      -0.93309121       3.35955189       0.51926011       0.00000000
