10
Lattice="16.290000149 0.0 0.0 0.0 16.290000149 0.0 0.0 0.0 29.1751946751" Properties=species:S:1:pos:R:3:initial_magmoms:R:1 pbc="T T T"
Si      -1.36477621      -1.36058968       1.32957197       0.00000000
Si       1.33618726      -1.44098083      -1.28974783       0.00000000
Si      -1.38478033       1.35632170      -1.33928731       0.00000000
Si       1.37899738       1.34532595       1.35696748       0.00000000
Si       2.69267186      -0.10200798      -2.60598382       0.00000000
Si       0.01842399      -2.69811272       2.68032513       0.00000000
Si      -2.71516835       0.00461007       2.68519739       0.00000000
Si      -0.03424158       2.75056328      -2.64987790       0.00000000
Si      -2.69781950      -2.71306694      -0.06506068       0.00000000
Si      -2.70910847       2.70835913       0.04516320       0.00000000
