10
Lattice="16.290000149 0.0 0.0 0.0 16.290000149 0.0 0.0 0.0 29.1751946751" Properties=species:S:1:pos:R:3:initial_magmoms:R:1 pbc="T T T"
Si       1.81858304       1.31878791       0.60057138       0.00000000
Si      -0.72503533      -0.35262963       2.26160274       0.00000000
Si      -1.21854088       1.87007410      -0.95283268       0.00000000
Si       1.61603317      -1.51632371      -1.07895705       0.00000000
H        0.73256131      -2.53055541       0.97509336       0.00000000
H       -1.18068292      -2.94684637      -0.25694594       0.00000000
Si      -0.26270883      -2.87016934      -1.46762899       0.00000000
Si       0.48710358       2.86415507       1.76320289       0.00000000
Si      -1.45266076       1.83754297       2.66389950       0.00000000
Si      -1.15520536      -1.45220627      -3.06246183       0.00000000
