10
Lattice="16.290000149 0.0 0.0 0.0 16.290000149 0.0 0.0 0.0 29.1751946751" Properties=species:S:1:pos:R:3:initial_magmoms:R:1 pbc="T T T"
Si      -1.34669431      -0.59552983      -0.28247423       0.00000000
H        0.96707215      -1.75058858      -0.45449118       0.00000000
H        1.62474832      -0.83873953       1.16163955       0.00000000
Si       1.10319139      -1.10177416       2.55142912       0.00000000
Si      -2.70389567       0.75789226       1.04170033       0.00000000
Si      -1.79830199      -0.14784804      -2.49240771       0.00000000
Si       2.09183150      -1.81519472      -1.46666621       0.00000000
Si      -1.15386958       2.07352154       2.22746776       0.00000000
Si      -1.71708005      -2.82227511       0.32950465       0.00000000
Si       0.02928942       1.14508927      -3.13437869       0.00000000
