10
Lattice="16.290000149 0.0 0.0 0.0 16.290000149 0.0 0.0 0.0 29.1751946751" Properties=species:S:1:pos:R:3:initial_magmoms:R:1 pbc="T T T"
H        1.97032439      -0.12600315      -1.07125480       0.00000000
Si       1.02563470      -1.33613839       1.61630579       0.00000000
Si       0.77540401       1.86787658      -1.27615219       0.00000000
Si      -0.77297680      -2.03512601      -1.01258348       0.00000000
Si      -1.06855885       1.11464326       1.86193175       0.00000000
H       -1.20743110       1.22113099      -2.32584652       0.00000000
H       -3.01969362       0.04895145      -1.27933229       0.00000000
H       -1.84352303       1.65828944      -2.42670517       0.00000000
H        2.31472757      -0.77325373       2.53045216       0.00000000
Si      -1.01022436       3.42243129      -0.66712000       0.00000000
