10
Lattice="16.290000149 0.0 0.0 0.0 16.290000149 0.0 0.0 0.0 29.1751946751" Properties=species:S:1:pos:R:3:initial_magmoms:R:1 pbc="T T T"
Si      -1.55002609      -1.31562928      -1.18576744       0.00000000
Si      -1.39934359       1.18998451       1.47235537       0.00000000
Si       1.39398418      -1.30603447       1.43524453       0.00000000
Si       0.78429835       1.50418278      -1.70543600       0.00000000
H        1.15386958      -2.07352154      -2.22746776       0.00000000
Si      -1.28692630       2.22210100      -2.54845325       0.00000000
Si      -0.19282473      -2.66905136      -2.50994200       0.00000000
Si      -2.58803794       0.23930010      -2.65987332       0.00000000
Si       0.04561200       2.63273933       2.74871179       0.00000000
H       -0.59730544       3.79043868       0.02765808       0.00000000
