10
Lattice="16.290000149 0.0 0.0 0.0 16.290000149 0.0 0.0 0.0 29.1751946751" Properties=species:S:1:pos:R:3:initial_magmoms:R:1 pbc="T T T"
Si      -1.39165471      -1.34467435      -1.32904682       0.00000000
Si      -1.35881407       1.35635428       1.35369986       0.00000000
Si       1.33030657      -1.36951660       1.37184683       0.00000000
Si       1.36125757       1.34348518      -1.37187600       0.00000000
Si      -0.03601719      -2.74012464      -2.61885300       0.00000000
Si       2.70733286       2.70187571      -0.01021132       0.00000000
Si      -2.70202884       2.71353935      -0.01000709       0.00000000
Si       2.70236441      -0.02096523       2.71501444       0.00000000
Si       2.68965821      -2.72766604       0.03235529       0.00000000
Si      -0.01161477       2.71878473       2.70465725       0.00000000
