10
Lattice="16.290000149 0.0 0.0 0.0 16.290000149 0.0 0.0 0.0 29.1751946751" Properties=species:S:1:pos:R:3:initial_magmoms:R:1 pbc="T T T"
Si      -1.41517747      -1.32703228       1.23907052       0.00000000
Si       1.36347301      -1.36894645      -1.26112697       0.00000000
Si       1.23162175       1.13904568       1.62272433       0.00000000
Si      -1.39515706       1.45223722      -1.19069805       0.00000000
Si      -0.37196586       1.06899868       3.40944242       0.00000000
Si       2.70213635       0.07824087      -2.51615631       0.00000000
Si      -2.49882086       0.09472635       2.73523285       0.00000000
Si      -0.05600502      -2.68027517      -2.57366062       0.00000000
Si       2.52908768       2.73052983       0.34925626       0.00000000
Si      -0.12395061      -2.62356968       2.66693372       0.00000000
