10
Lattice="16.290000149 0.0 0.0 0.0 16.290000149 0.0 0.0 0.0 29.1751946751" Properties=species:S:1:pos:R:3:initial_magmoms:R:1 pbc="T T T"
Si       1.34939845       1.38657223       1.32417456       0.00000000
Si      -1.33865194       1.35853714      -1.36359025       0.00000000
Si       1.38847816      -1.35123922      -1.33356897       0.00000000
Si      -1.35144773      -1.36381510       1.36429045       0.00000000
Si       2.66048282      -0.04059468       2.62074939       0.00000000
Si      -2.66655899       2.70791930       0.03171344       0.00000000
Si       0.04127886      -2.71366967      -2.68452636       0.00000000
Si      -2.68978853       0.00548973      -2.72531328       0.00000000
Si      -2.69267186      -2.72437220       0.00825658       0.00000000
Si       0.02075346       2.70917363      -2.72665534       0.00000000
