10
Lattice="16.290000149 0.0 0.0 0.0 16.290000149 0.0 0.0 0.0 29.1751946751" Properties=species:S:1:pos:R:3:initial_magmoms:R:1 pbc="T T T"
Si       2.07122465      -0.71791823       0.84301725       0.00000000
Si       0.75836467       0.59657401      -2.15269174       0.00000000
Si      -1.30111163      -1.98280090      -0.11142007       0.00000000
Si      -0.59111524       1.52810138       1.75564651       0.00000000
H        0.68962087       1.56833768       2.57611134       0.00000000
H        0.14561631       1.90268994      -2.59417078       0.00000000
Si      -0.07545528       3.52233949       0.06196811       0.00000000
Si       1.28692630      -2.22210100       2.54845325       0.00000000
Si       3.12220659      -1.38197682      -1.22769219       0.00000000
Si      -1.95206818       0.14479367       3.09058672       0.00000000
