10
Lattice="16.28999089631971 0.0 0.0 0.0 16.28999089631971 0.0 0.0 0.0 34.45770212530097" Properties=species:S:1:pos:R:3:initial_magmoms:R:1 pbc="T T T"
Si       1.28749644       1.95574482      -0.14482580       0.00000000
Si       1.31668812      -1.92648798      -0.44567617       0.00000000
Si      -2.21231232       0.07374483      -0.91488696       0.00000000
Si      -0.42088473      -0.37654335       2.33016895       0.00000000
Si      -2.16118127      -2.23189290      -1.33981958       0.00000000
Si      -0.45348102      -3.40130313      -0.18614061       0.00000000
Si      -0.75904884       1.84168224       2.93951930       0.00000000
Si       0.01420488       3.26973762      -1.66775371       0.00000000
Si       1.80607230      -0.90301986       3.06687503       0.00000000
Si       3.01469256      -1.73413566       1.19389113       0.00000000
