10
Lattice="16.28999089631971 0.0 0.0 0.0 16.28999089631971 0.0 0.0 0.0 34.45770212530097" Properties=species:S:1:pos:R:3:initial_magmoms:R:1 pbc="T T T"
Si      -1.23391374      -0.95066811       1.84102923       0.00000000
Si       0.26062371       2.21583096      -1.17690347       0.00000000
Si      -1.04686219      -2.01310191      -1.15336885       0.00000000
Si       1.45111320       1.61142309       1.87385021       0.00000000
Si      -2.97311138      -1.95760188       0.48881724       0.00000000
Si       2.15229996       3.31915170       0.37655398       0.00000000
Si      -0.99225648      -1.35933534      -3.71319851       0.00000000
Si       0.08822664      -2.47611258       3.29166140       0.00000000
Si      -2.61992789       0.23806206       3.31927237       0.00000000
Si      -1.65713446       3.72377901      -1.21394552       0.00000000
