10
Lattice="16.28999089631971 0.0 0.0 0.0 16.28999089631971 0.0 0.0 0.0 34.45770212530097" Properties=species:S:1:pos:R:3:initial_magmoms:R:1 pbc="T T T"
Si      -1.35648459       1.35610992       1.36063204       0.00000000
Si       1.36005210      -1.36071647       1.35966723       0.00000000
Si      -1.36114353      -1.36817721      -1.36471528       0.00000000
Si       1.37512035       1.36731744      -1.37135184       0.00000000
Si      -2.62510255       0.09018958      -2.74830995       0.00000000
Si      -2.71322330       2.71311579       0.00747733       0.00000000
Si       2.71621089       2.71308321       0.00354915       0.00000000
Si      -2.71409482      -2.71553390       0.00537540       0.00000000
Si      -2.71235993      -0.00186683       2.71830072       0.00000000
Si       0.00223173       2.71345788       2.71802506       0.00000000
