10
Lattice="16.28999089631971 0.0 0.0 0.0 16.28999089631971 0.0 0.0 0.0 34.45770212530097" Properties=species:S:1:pos:R:3:initial_magmoms:R:1 pbc="T T T"
Si      -1.08543528      -1.26170937       1.61634279       0.00000000
Si      -1.09258659       2.02136094       0.53481829       0.00000000
Si       2.25129429       0.80332506      -0.07591036       0.00000000
Si      -0.59921136      -1.06269444      -2.13152019       0.00000000
Si       2.33453619       0.61423074      -2.39770608       0.00000000
Si      -0.12183291       3.28701249      -1.11522415       0.00000000
Si      -3.26169783       1.42775334       0.21294872       0.00000000
Si       1.62002421      -1.56278115      -2.77036634       0.00000000
Si      -3.34065546      -0.61626699       1.40615069       0.00000000
Si       0.60062859       2.06076645      -2.99520297       0.00000000
