10
Lattice="16.28999089631971 0.0 0.0 0.0 16.28999089631971 0.0 0.0 0.0 34.45770212530097" Properties=species:S:1:pos:R:3:initial_magmoms:R:1 pbc="T T T"
Si       1.33736013      -1.35441576      -1.49594752       0.00000000
Si      -1.15624791      -1.55448954       1.47792613       0.00000000
Si      -1.38370518       1.34957763      -1.50818001       0.00000000
Si       1.07898444       2.03098833       1.76237462       0.00000000
Si      -0.94809429       3.50088390       1.00106572       0.00000000
Si       2.59656084       2.73958704       0.06440148       0.00000000
Si      -2.63182869      -2.72191239      -0.03356182       0.00000000
Si      -2.82173751       2.66833458      -0.15313011       0.00000000
Si       2.56942170      -2.97165438      -0.15288891       0.00000000
Si       2.69402391       0.00765630      -2.87911491       0.00000000
