10
Lattice="16.28999089631971 0.0 0.0 0.0 16.28999089631971 0.0 0.0 0.0 34.45770212530097" Properties=species:S:1:pos:R:3:initial_magmoms:R:1 pbc="T T T"
Si      -1.01752227      -1.82177586      -1.09465289       0.00000000
Si       1.74987180      -0.60466851       1.47830516       0.00000000
Si      -0.80317845       2.20284783       0.47348355       0.00000000
Si       1.25288019       0.50380083      -2.01288225       0.00000000
Si       0.95628816       3.34080207      -0.59112221       0.00000000
Si       2.79521739       1.99353762      -1.03790103       0.00000000
Si      -2.90194947      -0.68849685      -2.01343358       0.00000000
Si       3.59233596       0.43378641       0.51166270       0.00000000
Si       0.87101001      -2.79062361      -2.23155095       0.00000000
Si       1.71551619      -2.99560068       1.50973060       0.00000000
