10
Lattice="16.28999089631971 0.0 0.0 0.0 16.28999089631971 0.0 0.0 0.0 34.45770212530097" Properties=species:S:1:pos:R:3:initial_magmoms:R:1 pbc="T T T"
Si       1.75946661       1.13795424      -1.06460576       0.00000000
Si      -2.19136338       0.47918664      -0.71696181       0.00000000
Si      -0.11029959       0.83362446       2.20767175       0.00000000
Si       0.80317845      -2.20284783      -0.47348355       0.00000000
Si       2.05605864      -1.69904700      -2.48636580       0.00000000
Si       2.04476967       1.80838548       2.42330817       0.00000000
Si      -3.19873698      -1.60422291      -0.80744779       0.00000000
Si      -0.94964184      -0.85880880       3.57815870       0.00000000
Si       2.55821418       2.85553926       0.28520656       0.00000000
Si       1.25398791       1.46763126      -3.35156473       0.00000000
