10
Lattice="16.28999089631971 0.0 0.0 0.0 16.28999089631971 0.0 0.0 0.0 34.45770212530097" Properties=species:S:1:pos:R:3:initial_magmoms:R:1 pbc="T T T"
Si      -2.32726108       0.32638644       0.19344565       0.00000000
Si       0.47394126       1.44291933      -1.82539779       0.00000000
Si       0.78789843       0.87847083       2.11525614       0.00000000
Si       0.38099052      -2.30531030      -0.68474384       0.00000000
Si      -2.64253774       0.09141948       2.48898459       0.00000000
Si      -2.74988232       2.50502733      -0.61465683       0.00000000
Si      -1.64488275       2.20019256      -2.68987310       0.00000000
Si       1.57390722       0.15579756      -3.50486713       0.00000000
Si       1.52319645      -0.93512745       3.42389149       0.00000000
Si      -1.14504039       1.61963325       3.34570692       0.00000000
