10
Lattice="16.28999089631971 0.0 0.0 0.0 16.28999089631971 0.0 0.0 0.0 34.45770212530097" Properties=species:S:1:pos:R:3:initial_magmoms:R:1 pbc="T T T"
Si      -0.84175317      -1.73301165      -1.36402755       0.00000000
Si       1.93870548       0.84343104      -1.11457566       0.00000000
Si       1.27659843      -1.24928010       1.59404865       0.00000000
Si      -1.41908706       1.45528344       1.55943587       0.00000000
Si      -2.65170249      -2.48420871       0.11473732       0.00000000
Si       2.69029350      -2.50434315       0.23818555       0.00000000
Si       0.85646304      -3.47346783      -1.05579113       0.00000000
Si       2.54601297       2.72212416       0.22868901       0.00000000
Si      -0.07312581      -2.61294858       2.95619339       0.00000000
Si       2.63893113       0.10233378       2.95185171       0.00000000
