10
Lattice="16.28999089631971 0.0 0.0 0.0 16.28999089631971 0.0 0.0 0.0 34.45770212530097" Properties=species:S:1:pos:R:3:initial_magmoms:R:1 pbc="T T T"
Si      -0.24780348      -1.72171521       1.60945125       0.00000000
Si       2.31138810      -0.33594867      -0.44295401       0.00000000
Si      -1.22064228      -0.52417473      -1.99437846       0.00000000
Si      -0.38099052       2.30531030       0.68474384       0.00000000
Si       1.44368496      -3.24696420       0.98531854       0.00000000
Si      -0.22849983      -0.57513474       3.75775235       0.00000000
Si      -0.48927015       0.96762437      -3.68514993       0.00000000
Si       3.07734390       1.32782885      -1.90134261       0.00000000
Si       2.64427425      -2.66114322      -0.97415424       0.00000000
Si      -2.70825160       2.63169674       0.87818949       0.00000000
