10
Lattice="16.28999089631971 0.0 0.0 0.0 16.28999089631971 0.0 0.0 0.0 34.45770212530097" Properties=species:S:1:pos:R:3:initial_magmoms:R:1 pbc="T T T"
Si      -1.42374600       1.23549876       1.32927552       0.00000000
Si      -1.37065689      -1.33678998      -1.35036364       0.00000000
Si       1.34317566       1.37723805      -1.34888196       0.00000000
Si       1.24519131      -1.31883840       1.59628840       0.00000000
Si       2.05315902       0.58904640       2.66623511       0.00000000
Si       0.21271482       2.28286431       2.59259896       0.00000000
Si      -2.29946382      -0.55754154       2.53295264       0.00000000
Si       2.68431507      -2.69799867       0.04644901       0.00000000
Si      -0.01687644      -2.69723304      -2.70720534       0.00000000
Si       2.69882946       0.01892898      -2.70799787       0.00000000
