10
Lattice="16.28999089631971 0.0 0.0 0.0 16.28999089631971 0.0 0.0 0.0 34.45770212530097" Properties=species:S:1:pos:R:3:initial_magmoms:R:1 pbc="T T T"
Si      -1.35726651       1.35733356       1.35684169       0.00000000
Si       1.35783666       1.35558305      -1.35890916       0.00000000
Si      -1.35754344      -1.35630540      -1.35904699       0.00000000
Si       1.35806472      -1.35832536       1.35694507       0.00000000
Si      -0.00039096       2.71426002       2.71302869       0.00000000
Si       2.71340901      -0.00200367       2.71395905       0.00000000
Si      -2.71457537       2.71443269      -0.00027566       0.00000000
Si       0.00065160      -2.71549413       2.71382122       0.00000000
Si      -2.71364684      -0.00091224       2.71568194       0.00000000
Si      -2.71631026       0.00076563      -2.71320098       0.00000000
