10
Lattice="16.28999089631971 0.0 0.0 0.0 16.28999089631971 0.0 0.0 0.0 34.45770212530097" Properties=species:S:1:pos:R:3:initial_magmoms:R:1 pbc="T T T"
Si      -1.69800444      -0.19235232      -1.63956730       0.00000000
Si       1.54888578       1.22487768      -1.30856643       0.00000000
Si       1.57685571      -1.54613277       0.87670781       0.00000000
Si      -1.20862026       0.83111580       1.87298390       0.00000000
Si       3.10192551       0.06636546       1.73894337       0.00000000
Si       1.49095854      -0.07195293      -3.33505948       0.00000000
Si      -3.01469256       1.73413566      -1.19389113       0.00000000
Si       0.24715188       2.35149408       2.91505431       0.00000000
Si      -1.03048911      -1.43575173       3.38850341       0.00000000
Si       0.50811768       3.18620997      -2.10323040       0.00000000
