10
Lattice="16.28999089631971 0.0 0.0 0.0 16.28999089631971 0.0 0.0 0.0 34.45770212530097" Properties=species:S:1:pos:R:3:initial_magmoms:R:1 pbc="T T T"
Si       0.47065068      -0.86358829      -2.11808168       0.00000000
Si      -2.16394731      -0.50419505       0.78022619       0.00000000
Si       1.62929322      -1.28039889       1.12156437       0.00000000
Si       0.03435561       2.39093217      -0.03142544       0.00000000
Si       1.30754943      -0.47395592       3.33337105       0.00000000
Si       2.77273719      -0.37517988      -2.38485335       0.00000000
Si      -3.49899426      -0.48995270      -1.14599490       0.00000000
Si       3.56659776      -1.10651617      -0.24337489       0.00000000
Si      -2.44894086       0.71609211       2.76674828       0.00000000
Si      -1.71551619       2.99560068      -1.50973060       0.00000000
