10
Lattice="16.28999089631971 0.0 0.0 0.0 16.28999089631971 0.0 0.0 0.0 34.45770212530097" Properties=species:S:1:pos:R:3:initial_magmoms:R:1 pbc="T T T"
Si       0.79087950       1.78831620       1.34139572       0.00000000
Si       1.46098494      -1.95220175      -0.20929620       0.00000000
Si      -1.87561594      -0.88432709       1.34676423       0.00000000
Si       1.64980233       0.68720994      -2.52254641       0.00000000
Si      -2.34844948      -1.54757444      -1.79979570       0.00000000
Si      -1.44990774       2.66822055      -1.56627573       0.00000000
Si       2.12460696       0.39280077       2.72372234       0.00000000
Si      -0.43069131      -3.05552249      -1.76275365       0.00000000
Si      -2.13280735       0.77199939      -2.84844754       0.00000000
Si      -0.61165692      -2.34269388       2.73035890       0.00000000
