10
Lattice="16.28999089631971 0.0 0.0 0.0 16.28999089631971 0.0 0.0 0.0 34.45770212530097" Properties=species:S:1:pos:R:3:initial_magmoms:R:1 pbc="T T T"
Si       0.32174379      -0.80644297      -2.21180668       0.00000000
Si       0.51378660       2.33551196      -0.07353278       0.00000000
Si       1.44272385      -0.64700948       1.81871299       0.00000000
Si      -2.34905058      -0.26033375       0.67878265       0.00000000
Si      -1.30754943       0.47395592      -3.33337105       0.00000000
Si      -2.05812747      -0.20015849       3.00474776       0.00000000
Si       0.52888743       2.79337499       2.32593065       0.00000000
Si      -0.11772783      -1.64419110       3.30690752       0.00000000
Si       3.24967581      -1.73047923       0.71265459       0.00000000
Si       0.23310990      -3.16528614      -2.23217119       0.00000000
