10
Lattice="16.28999089631971 0.0 0.0 0.0 16.28999089631971 0.0 0.0 0.0 34.45770212530097" Properties=species:S:1:pos:R:3:initial_magmoms:R:1 pbc="T T T"
Si      -0.29092311      -0.06017526      -2.32596511       0.00000000
Si       0.51453594       2.31158521       0.22028821       0.00000000
Si      -1.85785821      -0.61400757       1.45259970       0.00000000
Si       1.94039964      -1.44403261       0.30215976       0.00000000
Si       0.17945064       2.50097275       2.52020328       0.00000000
Si      -1.77969879      -1.87268767      -2.52499291       0.00000000
Si       2.05812747       0.20015849      -3.00474776       0.00000000
Si       3.50085132      -0.44685099      -1.18603477       0.00000000
Si      -1.72626759       1.17685639       3.24026629       0.00000000
Si       1.42723206      -3.64722253      -0.58657379       0.00000000
