10
Lattice="16.28999089631971 0.0 0.0 0.0 16.28999089631971 0.0 0.0 0.0 34.45770212530097" Properties=species:S:1:pos:R:3:initial_magmoms:R:1 pbc="T T T"
Si       1.72678887       1.53383382       0.01388646       0.00000000
Si      -1.78701300       1.45516941       0.26701288       0.00000000
Si       0.86082876      -1.45104804       1.62809288       0.00000000
Si      -0.01552437      -0.52419591      -2.34705323       0.00000000
Si      -3.14004411      -0.46920087       0.75486530       0.00000000
Si      -1.32006015       2.57711058      -1.77722590       0.00000000
Si       3.08443005      -0.72742995       1.42903062       0.00000000
Si       1.01735937       3.06897084      -1.64063549       0.00000000
Si       2.25947187      -0.09026289      -2.83955745       0.00000000
Si       0.83965176      -3.67587108       0.78684207       0.00000000
