10
Lattice="16.28999089631971 0.0 0.0 0.0 16.28999089631971 0.0 0.0 0.0 34.45770212530097" Properties=species:S:1:pos:R:3:initial_magmoms:R:1 pbc="T T T"
Si       0.37667367       1.34877942       1.84838109       0.00000000
Si      -1.40823792       1.44057357      -1.19812943       0.00000000
Si       0.44198028      -2.28630150      -0.30925805       0.00000000
Si       2.19970386       0.87923646      -0.47420716       0.00000000
Si       1.31268078       2.95160139       0.20347284       0.00000000
Si       3.21041691      -0.62011143       1.15150813       0.00000000
Si       1.92252951       0.00739566       2.98664716       0.00000000
Si       0.77706558      -2.47568904      -2.60917312       0.00000000
Si       2.18448900      -2.78370036       1.19537281       0.00000000
Si      -0.96238062       3.66106347      -0.47782522       0.00000000
