10
Lattice="16.28999089631971 0.0 0.0 0.0 16.28999089631971 0.0 0.0 0.0 34.45770212530097" Properties=species:S:1:pos:R:3:initial_magmoms:R:1 pbc="T T T"
Si       0.15064992       1.56556674       1.70817262       0.00000000
Si      -2.15506926      -0.97476102      -0.21563642       0.00000000
Si       1.45518570      -1.53573975       1.13834528       0.00000000
Si       0.51344451       1.04715378      -2.13810161       0.00000000
Si      -0.28530306      -0.67043124      -3.48791393       0.00000000
Si      -2.04476967      -1.80838548      -2.42330817       0.00000000
Si       2.48806944       2.05742700       1.84476303       0.00000000
Si      -0.31630293       0.44362557       3.75241140       0.00000000
Si      -1.07351100       3.47819193       1.19423571       0.00000000
Si       3.68740440       1.22256450      -0.09775656       0.00000000
