10
Lattice="16.28999089631971 0.0 0.0 0.0 16.28999089631971 0.0 0.0 0.0 34.45770212530097" Properties=species:S:1:pos:R:3:initial_magmoms:R:1 pbc="T T T"
Si       1.22416092      -1.91262519       0.51393691       0.00000000
Si       0.80063721       1.52987535      -1.59925176       0.00000000
Si      -2.26533627      -0.68725881      -0.43216874       0.00000000
Si       0.05792724       1.29683061       2.02649305       0.00000000
Si      -0.90021798       3.06647847      -1.07328911       0.00000000
Si      -3.18896298      -0.12039939       1.69549218       0.00000000
Si      -0.98284086       3.25816290       1.23182908       0.00000000
Si      -1.49095854       0.07195293       3.33505948       0.00000000
Si       1.07351100      -3.47819193      -1.19423571       0.00000000
Si       3.56158044      -1.42076493       0.65052732       0.00000000
