10
Lattice="16.28999089631971 0.0 0.0 0.0 16.28999089631971 0.0 0.0 0.0 34.45770212530097" Properties=species:S:1:pos:R:3:initial_magmoms:R:1 pbc="T T T"
Si       0.70942950      -1.53513702       1.65452195       0.00000000
Si      -2.33741952      -0.49186026      -0.13659041       0.00000000
Si       0.57407589       1.98573471       1.21746021       0.00000000
Si       1.19933496      -0.83486250      -1.94251959       0.00000000
Si       1.24211250      -3.15923373      -1.19892196       0.00000000
Si       2.54565459       1.11379617       2.31803983       0.00000000
Si      -1.01735937      -3.06897084       1.64063549       0.00000000
Si       1.29687948       3.41021376      -0.48326954       0.00000000
Si      -2.48806944      -2.05742700      -1.84476303       0.00000000
Si       3.25759275       0.30964032      -1.79100898       0.00000000
