10
Lattice="16.28999089631971 0.0 0.0 0.0 16.28999089631971 0.0 0.0 0.0 34.45770212530097" Properties=species:S:1:pos:R:3:initial_magmoms:R:1 pbc="T T T"
Si      -0.51394950      -1.23662277       1.89669082       0.00000000
Si       0.67131090      -1.56038652      -1.65359159       0.00000000
Si      -1.57685571       1.54613277      -0.87670781       0.00000000
Si       1.52506980       1.61249823       0.86223556       0.00000000
Si      -0.02796993       2.77101045      -2.18527423       0.00000000
Si      -2.60734482       0.11038104       2.51179560       0.00000000
Si       1.76111190      -1.94608485       2.57798888       0.00000000
Si       3.27684753       0.28903347       1.72729666       0.00000000
Si      -0.68172021      -3.48475680      -1.16573917       0.00000000
Si      -0.95980680      -3.45711267       1.17638661       0.00000000
