10
Lattice="16.28999089631971 0.0 0.0 0.0 16.28999089631971 0.0 0.0 0.0 34.45770212530097" Properties=species:S:1:pos:R:3:initial_magmoms:R:1 pbc="T T T"
Si       1.78701300      -1.45516941      -0.26701288       0.00000000
Si      -0.67131090       1.56038652       1.65359159       0.00000000
Si       0.46695285       1.12194117      -2.04423878       0.00000000
Si      -1.35303111      -1.92437028       0.48785242       0.00000000
Si       3.51380187       0.07866441      -0.25312642       0.00000000
Si       1.77148863      -1.97936532      -2.61406612       0.00000000
Si       2.80437237       1.61380143      -1.90764837       0.00000000
Si      -1.18526040       0.32376375       3.55028241       0.00000000
Si      -1.63111770      -1.89672615       2.82997820       0.00000000
Si       0.31630293      -0.44362557      -3.75241140       0.00000000
