10
Lattice="16.28999089631971 0.0 0.0 0.0 16.28999089631971 0.0 0.0 0.0 34.45770212530097" Properties=species:S:1:pos:R:3:initial_magmoms:R:1 pbc="T T T"
Si       1.35525986      -1.35502443      -1.35604917       0.00000000
Si      -1.35784520      -1.35640908       1.35684169       0.00000000
Si       1.35699474       1.35864263       1.35687615       0.00000000
Si      -1.35475010       1.35659986      -1.36132120       0.00000000
Si       0.02116846       2.71213963      -2.70699515       0.00000000
Si       0.00862516      -2.69826525      -2.72307656       0.00000000
Si       2.71402667      -2.71209546      -0.00189517       0.00000000
Si      -0.00100363      -2.71356156       2.71399351       0.00000000
Si       2.71430360       0.00154350       2.71399351       0.00000000
Si      -2.71674071      -2.71207917      -0.00013783       0.00000000
