10
Lattice="16.28999089631971 0.0 0.0 0.0 16.28999089631971 0.0 0.0 0.0 34.45770212530097" Properties=species:S:1:pos:R:3:initial_magmoms:R:1 pbc="T T T"
Si       1.35702216       1.35718506       1.35660049       0.00000000
Si      -1.35480672       1.35775521      -1.35904699       0.00000000
Si      -1.35728280      -1.35856971       1.35687615       0.00000000
Si       1.35483930      -1.35889551      -1.36011518       0.00000000
Si      -0.02034621       2.70288251      -2.72133645       0.00000000
Si      -0.00001629       2.71413815       2.71385568       0.00000000
Si       2.71441899      -0.00047241       2.71375231       0.00000000
Si      -0.00749340      -2.71050939      -2.71791824       0.00000000
Si      -2.71552671       2.71299617      -0.00196409       0.00000000
Si      -2.71529865      -0.00091224       2.71389014       0.00000000
