10
Lattice="16.28999089631971 0.0 0.0 0.0 16.28999089631971 0.0 0.0 0.0 34.45770212530097" Properties=species:S:1:pos:R:3:initial_magmoms:R:1 pbc="T T T"
Si      -1.35641943      -1.35690813      -1.35715181       0.00000000
Si      -1.35565380       1.35830907       1.35911590       0.00000000
Si       1.35883035       1.35816246      -1.35756531       0.00000000
Si       1.36164852      -1.35656604       1.36259613       0.00000000
Si      -2.69882946      -0.01892898       2.70799787       0.00000000
Si      -2.71287144       0.00006516      -2.71444146       0.00000000
Si       0.00172674      -2.71474479      -2.71471712       0.00000000
Si      -2.71554300       2.71404432      -0.00041349       0.00000000
Si       0.00143352       2.71581993      -2.71471712       0.00000000
Si       2.71653669       2.71477737       0.00031012       0.00000000
