10
Lattice="16.28999089631971 0.0 0.0 0.0 16.28999089631971 0.0 0.0 0.0 34.45770212530097" Properties=species:S:1:pos:R:3:initial_magmoms:R:1 pbc="T T T"
Si      -0.80796771      -1.90788480      -1.06994671       0.00000000
Si      -0.40469247      -0.06735915       2.31597237       0.00000000
Si       1.89224640       0.75950496      -1.30367343       0.00000000
Si      -1.84044420       1.69381791      -0.07363615       0.00000000
Si      -2.05315902      -0.58904640      -2.66623511       0.00000000
Si       0.64119069       2.16697725      -2.66182452       0.00000000
Si      -2.32554411      -2.61648351       0.62802643       0.00000000
Si       0.82984518       1.93194513       2.91612250       0.00000000
Si      -0.75992850       3.43155366      -1.21074096       0.00000000
Si      -3.47690502       0.64645236      -1.33695959       0.00000000
