10
Lattice="16.28999089631971 0.0 0.0 0.0 16.28999089631971 0.0 0.0 0.0 34.45770212530097" Properties=species:S:1:pos:R:3:initial_magmoms:R:1 pbc="T T T"
Si       1.84018912       0.89336478       1.19392903       0.00000000
Si      -0.88936884      -1.92012903       1.09929090       0.00000000
Si      -1.90933461       1.41416422      -0.22333569       0.00000000
Si       1.36735558       0.23011743      -1.95263090       0.00000000
Si       0.41710545       2.15480536       2.59666841       0.00000000
Si      -2.32139016      -0.57960390       2.57359208       0.00000000
Si      -0.16739604      -0.25310099      -3.65036283       0.00000000
Si      -1.00185129       3.34490389       1.21012761       0.00000000
Si      -3.72228129       0.71240243       1.18993194       0.00000000
Si       3.28511375      -1.27783062      -1.91558885       0.00000000
