10
Lattice="16.28999089631971 0.0 0.0 0.0 16.28999089631971 0.0 0.0 0.0 34.45770212530097" Properties=species:S:1:pos:R:3:initial_magmoms:R:1 pbc="T T T"
Si      -0.55032507       0.53781435       2.19998768       0.00000000
Si      -1.85196123      -0.75728693      -1.31573363       0.00000000
Si       1.67567315      -1.80922997      -0.09965173       0.00000000
Si       0.83898666       1.95792116      -1.29219901       0.00000000
Si      -0.58282362      -2.05256999      -2.81009609       0.00000000
Si       2.15269159       0.67510484      -2.80289443       0.00000000
Si       3.36770405      -0.74169740      -1.40339408       0.00000000
Si       0.71768853      -3.47063078      -1.48195768       0.00000000
Si      -3.41104455      -2.04799250      -0.16419104       0.00000000
Si      -1.99936944      -0.94447532       3.32451542       0.00000000
