10
Lattice="16.28999089631971 0.0 0.0 0.0 16.28999089631971 0.0 0.0 0.0 34.45770212530097" Properties=species:S:1:pos:R:3:initial_magmoms:R:1 pbc="T T T"
Si       1.37539728       1.48579624       1.10888393       0.00000000
Si      -1.93730454      -0.17388272       1.36493926       0.00000000
Si       0.99595431      -2.12384689      -0.38072336       0.00000000
Si      -0.79386057       0.73133629      -2.14147847       0.00000000
Si      -1.09033857      -3.10272928      -0.81730269       0.00000000
Si      -2.02593843      -2.53272589       1.34457475       0.00000000
Si       2.62427013       2.26129798      -0.75079929       0.00000000
Si      -3.09594708       0.24292788      -1.87470679       0.00000000
Si       2.44493352       0.08035857       2.74755533       0.00000000
Si      -3.56659776       1.10651617       0.24337489       0.00000000
