10
Lattice="16.28999089631971 0.0 0.0 0.0 16.28999089631971 0.0 0.0 0.0 34.45770212530097" Properties=species:S:1:pos:R:3:initial_magmoms:R:1 pbc="T T T"
Si      -1.35513252       1.35744570       1.35670386       0.00000000
Si      -1.35635427      -1.35643572      -1.35694507       0.00000000
Si       1.35850455       1.35853713      -1.35666941       0.00000000
Si       1.35936792      -1.35462753       1.36045976       0.00000000
Si      -2.69496873      -0.02086749       2.71595760       0.00000000
Si       0.00070047      -2.71377879      -2.71440700       0.00000000
Si       2.71412577      -2.71430659       0.00068915       0.00000000
Si      -2.71401174       0.00107514      -2.71451038       0.00000000
Si      -2.71319724       2.71604799      -0.00024120       0.00000000
Si      -2.71492398      -2.71494353       0.00031012       0.00000000
