10
Lattice="16.28999089631971 0.0 0.0 0.0 16.28999089631971 0.0 0.0 0.0 34.45770212530097" Properties=species:S:1:pos:R:3:initial_magmoms:R:1 pbc="T T T"
Si       1.94991300       0.84261654       1.18517333       0.00000000
Si       1.36954917      -1.34052039      -1.53709004       0.00000000
Si      -1.32905223       1.39074246      -1.54835771       0.00000000
Si      -1.91304873      -0.95920407       1.52123948       0.00000000
Si      -2.67506235      -2.69737965      -0.05030827       0.00000000
Si       2.71308321       2.65600305      -0.22717976       0.00000000
Si      -2.90810709       2.53027683      -0.10823170       0.00000000
Si       2.78992593      -2.75283081      -0.06515955       0.00000000
Si       0.02461419      -2.67973758      -2.93331691       0.00000000
Si       3.69919740      -0.84561390       1.19078994       0.00000000
