10
Lattice="16.28999089631971 0.0 0.0 0.0 16.28999089631971 0.0 0.0 0.0 34.45770212530097" Properties=species:S:1:pos:R:3:initial_magmoms:R:1 pbc="T T T"
Si      -2.24578827      -0.71345313      -0.19506516       0.00000000
Si       0.11608254       2.07083367       1.22035466       0.00000000
Si       1.22864067      -1.51852122       1.45284091       0.00000000
Si       1.23276204      -1.34498385      -1.62020206       0.00000000
Si      -3.08540745       0.75608406       1.44894718       0.00000000
Si      -1.39530366       1.45228608       2.93052583       0.00000000
Si       2.38650848       1.98303057       1.81406120       0.00000000
Si      -2.18949003      -3.04848291       0.06216173       0.00000000
Si       1.93350801      -3.26147791      -0.07976962       0.00000000
Si       2.80912972      -0.19561032       2.62216368       0.00000000
