10
Lattice="16.28999089631971 0.0 0.0 0.0 16.28999089631971 0.0 0.0 0.0 34.45770212530097" Properties=species:S:1:pos:R:3:initial_magmoms:R:1 pbc="T T T"
Si      -1.43896086       1.19566971       1.48851499       0.00000000
Si       0.91833246       1.74669525      -1.35064072       0.00000000
Si      -1.40313915      -1.10540682      -1.61434566       0.00000000
Si       1.24952445      -1.48304160       1.47910114       0.00000000
Si      -2.63344140       2.63018340       0.12625998       0.00000000
Si      -0.88557327       3.43842804      -1.32104154       0.00000000
Si      -2.69335602      -2.66517432       0.01804551       0.00000000
Si       2.51780262      -2.84785038       0.09955180       0.00000000
Si       2.65753009       2.75362902       0.00157127       0.00000000
Si      -0.09689292       2.56774383       2.84270688       0.00000000
