10
Lattice="16.28999089631971 0.0 0.0 0.0 16.28999089631971 0.0 0.0 0.0 34.45770212530097" Properties=species:S:1:pos:R:3:initial_magmoms:R:1 pbc="T T T"
Si       1.35746199      -1.35369900       1.35818555       0.00000000
Si      -1.35767376      -1.35573525      -1.35704844       0.00000000
Si       1.35689184       1.35940050      -1.35718627       0.00000000
Si      -1.35518139       1.35972630       1.36300963       0.00000000
Si       2.71324611      -2.71261080       0.00017229       0.00000000
Si       2.70016524      -0.01000206       2.72591588       0.00000000
Si      -0.00055386      -2.71303434      -2.71444146       0.00000000
Si      -2.71472850      -2.71326240      -0.00020675       0.00000000
Si       2.71474479       0.00187335      -2.71440700       0.00000000
Si      -2.71510317       0.00154755      -2.71430363       0.00000000
