10
Lattice="16.28999089631971 0.0 0.0 0.0 16.28999089631971 0.0 0.0 0.0 34.45770212530097" Properties=species:S:1:pos:R:3:initial_magmoms:R:1 pbc="T T T"
Si       0.86490126       0.55198665       2.14757749       0.00000000
Si      -0.48687552      -2.35361178      -0.09999631       0.00000000
Si      -1.83858714       1.36881612       0.87388227       0.00000000
Si       1.44927243       0.61335108      -1.95964507       0.00000000
Si       2.26764149       2.13366420      -0.22966071       0.00000000
Si      -2.06553942      -1.72222767      -1.84886350       0.00000000
Si      -0.52535250      -0.26238303      -3.29078131       0.00000000
Si       0.84064545       2.91882591       1.55993550       0.00000000
Si      -1.29293730       0.72822816       3.16807736       0.00000000
Si      -1.71185094      -2.76820857       1.87642968       0.00000000
