10
Lattice="16.28999089631971 0.0 0.0 0.0 16.28999089631971 0.0 0.0 0.0 34.45770212530097" Properties=species:S:1:pos:R:3:initial_magmoms:R:1 pbc="T T T"
Si       1.40199885      -1.27964466      -1.45811294       0.00000000
Si      -1.29942072       1.43992197      -1.45056670       0.00000000
Si       1.97462493       0.87573411       1.33113623       0.00000000
Si      -1.54018692      -1.45984464       1.44191781       0.00000000
Si       0.52535250       0.26238303       3.29078131       0.00000000
Si       0.03847698      -2.09122875       3.19078500       0.00000000
Si       2.70368388       2.73476520      -0.14513592       0.00000000
Si       0.05929560      -2.62334160      -2.82584327       0.00000000
Si       2.74813929      -2.71783989      -0.11739746       0.00000000
Si      -2.65334778       0.09008370      -2.82101919       0.00000000
