10
Lattice="16.28999089631971 0.0 0.0 0.0 16.28999089631971 0.0 0.0 0.0 34.45770212530097" Properties=species:S:1:pos:R:3:initial_magmoms:R:1 pbc="T T T"
Si       1.22497542       0.41459679      -1.97642598       0.00000000
Si      -1.45347525      -1.61196066       1.02074108       0.00000000
Si       1.87403418       0.34459866       1.60786620       0.00000000
Si      -1.75311351       1.10947932      -1.41438609       0.00000000
Si      -0.05923044       1.54509021       2.57123517       0.00000000
Si      -3.29240448      -0.26469621       1.46751990       0.00000000
Si       0.41891364       3.49643673       1.29164769       0.00000000
Si       1.71185094       2.76820857      -1.87642968       0.00000000
Si      -0.35368848       1.04598090      -3.72529317       0.00000000
Si      -3.79788318       0.06498081      -0.81943907       0.00000000
