10
Lattice="16.28999089631971 0.0 0.0 0.0 16.28999089631971 0.0 0.0 0.0 34.45770212530097" Properties=species:S:1:pos:R:3:initial_magmoms:R:1 pbc="T T T"
Si      -1.21243212      -1.06463295      -1.64191042       0.00000000
Si       2.03935229      -1.16062992       0.35043503       0.00000000
Si      -1.73555289      -0.29313855       1.61885821       0.00000000
Si       0.59763027       2.34904962      -0.28382825       0.00000000
Si      -2.59180416       1.01507877      -1.83129006       0.00000000
Si       2.28712319      -0.63386019       2.64814480       0.00000000
Si       3.36837194       0.03872133      -1.19296077       0.00000000
Si       2.96086130       2.25904574      -0.45446289       0.00000000
Si      -1.18817631      -3.43147221      -1.05426844       0.00000000
Si      -2.73150720       1.83070834       1.99958157       0.00000000
