10
Lattice="16.28999089631971 0.0 0.0 0.0 16.28999089631971 0.0 0.0 0.0 34.45770212530097" Properties=species:S:1:pos:R:3:initial_magmoms:R:1 pbc="T T T"
Si      -1.52725266      -1.35886293      -1.17135578       0.00000000
Si       1.44904437       1.48228967      -1.12452774       0.00000000
Si      -0.93356361       1.54696586       1.68939316       0.00000000
Si       1.37937204      -2.07971172       0.18937964       0.00000000
Si       2.59180416      -1.01507877       1.83129006       0.00000000
Si       3.18943443       1.33397085       1.54746181       0.00000000
Si       0.85625127      -1.30821732       3.45014827       0.00000000
Si      -3.05880588      -1.25895636       1.86126828       0.00000000
Si      -1.29986055      -3.62972151      -0.49667360       0.00000000
Si      -0.13970304       0.81562957       3.83087163       0.00000000
