10
Lattice="16.28999089631971 0.0 0.0 0.0 16.28999089631971 0.0 0.0 0.0 34.45770212530097" Properties=species:S:1:pos:R:3:initial_magmoms:R:1 pbc="T T T"
Si       1.35687555       1.35692646       1.35618700       0.00000000
Si       1.35726651      -1.35733356      -1.35684169       0.00000000
Si      -1.35730886       1.35709913      -1.35711736       0.00000000
Si      -1.35638033      -1.35824580       1.35884024       0.00000000
Si      -2.71430360      -0.00154350      -2.71399351       0.00000000
Si       0.00016290      -2.71422540       2.71492387       0.00000000
Si      -2.71488437       2.71447316      -0.00003446       0.00000000
Si      -0.00027693      -2.71363896      -2.71588868       0.00000000
Si       2.71507059       2.71457090       0.00024120       0.00000000
Si      -0.00143352       2.71507589      -2.71478604       0.00000000
