10
Lattice="16.28999089631971 0.0 0.0 0.0 16.28999089631971 0.0 0.0 0.0 34.45770212530097" Properties=species:S:1:pos:R:3:initial_magmoms:R:1 pbc="T T T"
Si      -1.35729583       1.35744570      -1.35759976       0.00000000
Si       1.35886686       1.35650088       1.35715181       0.00000000
Si      -1.35879451      -1.35703845       1.35697953       0.00000000
Si       1.35757995      -1.35788553      -1.35735856       0.00000000
Si       2.71631908      -0.00169416       2.71123689       0.00000000
Si      -2.71457863       0.00187335       2.71499278       0.00000000
Si       0.00042680       2.71370223       2.71599206       0.00000000
Si       0.00287118      -2.71526607      -2.71447592       0.00000000
Si       2.71516249       2.71482624      -0.00037903       0.00000000
Si       2.71514620      -2.71494027      -0.00027566       0.00000000
