10
Lattice="16.28999089631971 0.0 0.0 0.0 16.28999089631971 0.0 0.0 0.0 34.45770212530097" Properties=species:S:1:pos:R:3:initial_magmoms:R:1 pbc="T T T"
Si      -1.89989034       0.65446704       1.31018594       0.00000000
Si      -0.54220222      -0.34028181      -2.32975546       0.00000000
Si       1.13007314      -2.11998060       0.32803751       0.00000000
Si       1.58050793       1.67386266       0.95899284       0.00000000
Si       1.42443344       1.18024308      -2.67695146       0.00000000
Si       0.90409500       1.33978734       3.25201637       0.00000000
Si       3.31448069      -1.44717102      -0.49874106       0.00000000
Si      -1.26778947       0.41228361       3.57667702       0.00000000
Si      -2.12666343       3.03106401       1.18779211       0.00000000
Si      -2.76441693      -1.77373665      -2.09113574       0.00000000
