10
Lattice="16.28999089631971 0.0 0.0 0.0 16.28999089631971 0.0 0.0 0.0 34.45770212530097" Properties=species:S:1:pos:R:3:initial_magmoms:R:1 pbc="T T T"
Si      -0.67641293      -0.33407532       2.29302353       0.00000000
Si      -0.16690734       2.32560927      -0.68443372       0.00000000
Si       2.32990983       0.27556164      -0.63329846       0.00000000
Si      -1.58050793      -1.67386266      -0.95899284       0.00000000
Si       1.97281674      -1.03581594      -2.58939439       0.00000000
Si      -1.89026716       2.74268214       0.77953703       0.00000000
Si      -0.72754398       1.97156241       2.71795615       0.00000000
Si      -0.41467824       1.79883954      -2.98214350       0.00000000
Si      -3.48039827      -1.01939562       0.35119310       0.00000000
Si      -0.15607449      -0.49361958      -3.63594430       0.00000000
