10
Lattice="16.28999089631971 0.0 0.0 0.0 16.28999089631971 0.0 0.0 0.0 34.45770212530097" Properties=species:S:1:pos:R:3:initial_magmoms:R:1 pbc="T T T"
Si      -0.05113105       2.30563773       0.42493262       0.00000000
Si       1.70770025      -1.16941023       1.15367897       0.00000000
Si      -2.17188447      -0.92750373       0.32466065       0.00000000
Si       0.67641293       0.33407532      -2.29302353       0.00000000
Si       2.16118127       2.23189290       1.33981958       0.00000000
Si      -2.80398534      -0.68532030      -1.94183043       0.00000000
Si       3.47786939       0.30540492       0.89414341       0.00000000
Si      -1.54363649      -3.21110109       0.59150125       0.00000000
Si      -0.90409500      -1.33978734      -3.25201637       0.00000000
Si      -1.21385424       3.07675746      -1.51348650       0.00000000
