10
Lattice="16.28999089631971 0.0 0.0 0.0 16.28999089631971 0.0 0.0 0.0 34.45770212530097" Properties=species:S:1:pos:R:3:initial_magmoms:R:1 pbc="T T T"
Si       0.44387904       0.18137286       2.29874351       0.00000000
Si      -0.62824798       2.28359736      -0.26684059       0.00000000
Si      -1.82290771      -1.53896517      -0.05775114       0.00000000
Si       1.94758288      -0.81661770      -1.19340872       0.00000000
Si       1.54363649       3.21110109      -0.59150125       0.00000000
Si      -2.45087092      -1.58026032       2.32734342       0.00000000
Si       0.90599213      -1.94702967       3.05271291       0.00000000
Si      -1.26034885       2.52578079      -2.53333168       0.00000000
Si       2.36310820       1.50574986       2.65779297       0.00000000
Si       3.25133674       2.04169086       0.56217772       0.00000000
