10
Lattice="10.86 0.0 0.0 0.0 10.86 0.0 0.0 0.0 10.86" Properties=species:S:1:pos:R:3:initial_magmoms:R:1 pbc="T T T"
Si      -1.47272460      -1.16930706      -1.23819204       0.00000000
Si       1.62928236      -1.01356380       1.53465918       0.00000000
Si      -0.93494826       1.44514020       1.78384188       0.00000000
Si       0.28410846       2.56294914      -2.29241568       0.00000000
Si       0.13692288      -2.40112428      -2.51937882       0.00000000
Si      -2.57807712      -2.40112428       0.19562118       0.00000000
Si      -2.57807712       0.31387572      -2.51937882       0.00000000
Si       2.85192288      -2.40112428       0.19562118       0.00000000
Si       0.13692288      -2.40112428       2.91062118       0.00000000
Si      -2.57807712       0.31387572       2.91062118       0.00000000
