10
Lattice="10.86 0.0 0.0 0.0 10.86 0.0 0.0 0.0 10.86" Properties=species:S:1:pos:R:3:initial_magmoms:R:1 pbc="T T T"
Si       1.22264052       1.32743952       1.37596200       0.00000000
Si       1.22264052      -1.38756048      -1.33903800       0.00000000
Si      -1.62928236       1.01356380      -1.53465918       0.00000000
Si      -1.49235948      -1.38756048       1.37596200       0.00000000
Si      -2.56423062       2.45870400       0.24918270       0.00000000
Si       2.59683234       2.52806682       0.06543150       0.00000000
Si       2.58014052      -0.03006048       2.73346200       0.00000000
Si       2.58014052      -2.74506048       0.01846200       0.00000000
Si      -0.13485948       2.68493952       2.73346200       0.00000000
Si      -0.13485948      -2.74506048      -2.69653800       0.00000000
