10
Lattice="10.86 0.0 0.0 0.0 10.86 0.0 0.0 0.0 10.86" Properties=species:S:1:pos:R:3:initial_magmoms:R:1 pbc="T T T"
Si       1.22774472      -1.32703770      -1.22280342       0.00000000
Si       1.22774472       1.38796230       1.49219658       0.00000000
Si      -1.48725528      -1.32703770       1.49219658       0.00000000
Si       2.58524472       0.03046230      -2.58030342       0.00000000
Si      -0.15012864       2.75179368      -2.44130628       0.00000000
Si      -0.12975528      -2.68453770      -2.58030342       0.00000000
Si      -2.77379604       0.25238640      -2.47916424       0.00000000
Si       2.58524472      -2.68453770       0.13469658       0.00000000
Si       2.58524472       2.74546230       0.13469658       0.00000000
Si       2.58524472       0.03046230       2.84969658       0.00000000
