10
Lattice="10.86 0.0 0.0 0.0 10.86 0.0 0.0 0.0 10.86" Properties=species:S:1:pos:R:3:initial_magmoms:R:1 pbc="T T T"
Si      -1.26639546      -1.28597604       1.26006408       0.00000000
Si       1.44860454       1.42902396       1.26006408       0.00000000
Si      -1.26639546       1.42902396      -1.45493592       0.00000000
Si      -2.27456184      -0.00807984      -2.75996040       0.00000000
Si      -2.33826660      -2.86971156       0.13328478       0.00000000
Si      -2.62389546       0.07152396       2.61756408       0.00000000
Si       0.09110454      -2.64347604       2.61756408       0.00000000
Si       0.09110454       2.78652396       2.61756408       0.00000000
Si      -2.62389546       2.78652396      -0.09743592       0.00000000
Si       2.80610454       0.07152396       2.61756408       0.00000000
