10
Lattice="10.86 0.0 0.0 0.0 10.86 0.0 0.0 0.0 10.86" Properties=species:S:1:pos:R:3:initial_magmoms:R:1 pbc="T T T"
Si       1.26285510      -1.26909960      -1.39947390       0.00000000
Si       1.26285510       1.44590040       1.31552610       0.00000000
Si      -1.45214490       1.44590040      -1.39947390       0.00000000
Si      -0.11501826      -2.62026822      -2.61797676       0.00000000
Si       2.62035510      -2.62659960      -0.04197390       0.00000000
Si       2.62035510       0.08840040       2.67302610       0.00000000
Si       2.62035510       0.08840040      -2.75697390       0.00000000
Si       2.62035510       2.80340040      -0.04197390       0.00000000
Si      -0.09464490       2.80340040       2.67302610       0.00000000
Si      -0.07795308      -2.78347230       2.71999560       0.00000000
