10
Lattice="16.28999089631971 0.0 0.0 0.0 16.28999089631971 0.0 0.0 0.0 34.63643526849801" Properties=species:S:1:pos:R:3:initial_magmoms:R:1 pbc="T T T"
Si       1.32563133      -1.25346036      -1.46271480       0.00000000
Si      -1.34770591      -1.35781410       1.36000732       0.00000000
Si       1.36101321       1.35580083       1.35730567       0.00000000
Si      -1.28659072       1.40189339      -1.41418566       0.00000000
Si       0.51634413       2.01125831      -3.08022826       0.00000000
Si       2.36975517       0.31114268      -2.91532410       0.00000000
Si      -0.06193458      -2.54641395      -2.82045485       0.00000000
Si       2.71510317      -2.69603760      -0.02633063       0.00000000
Si      -2.70609837      -0.00403328       2.71810270       0.00000000
Si       0.00959481       2.71255910       2.71851834       0.00000000
