10
Lattice="16.28999089631971 0.0 0.0 0.0 16.28999089631971 0.0 0.0 0.0 34.63643526849801" Properties=species:S:1:pos:R:3:initial_magmoms:R:1 pbc="T T T"
Si       0.39363156      -2.08165023       0.92818771       0.00000000
Si      -1.50533446       0.97679727       1.50180204       0.00000000
Si      -1.18593969       0.05999607      -2.05892941       0.00000000
Si       2.14058745       1.05901290      -0.08839223       0.00000000
Si      -0.45093978       3.00758427       1.96004233       0.00000000
Si       1.91013282       2.50909983       1.89388670       0.00000000
Si       2.01324852       2.96694398      -1.50900642       0.00000000
Si      -1.36270085      -0.04083903       3.66190453       0.00000000
Si       1.59715305      -3.54939552      -0.44975436       0.00000000
Si      -1.49903023      -3.22770060       1.64866060       0.00000000
