10
Lattice="16.28999089631971 0.0 0.0 0.0 16.28999089631971 0.0 0.0 0.0 34.63643526849801" Properties=species:S:1:pos:R:3:initial_magmoms:R:1 pbc="T T T"
Si       0.87366528      -2.16680199      -0.13511681       0.00000000
Si      -1.41617115       0.82538498      -1.75603361       0.00000000
Si      -1.09631700      -0.28773679       2.12809841       0.00000000
Si       1.60331067       1.92038249       0.05160832       0.00000000
Si       0.61224336       0.95993386       3.16705350       0.00000000
Si      -3.19186260       0.71851932       1.71207995       0.00000000
Si       2.06799921      -2.32750284      -2.13904353       0.00000000
Si       0.07664445       2.10004490      -3.14159571       0.00000000
Si      -3.13488018       2.09554886      -0.37802227       0.00000000
Si       2.69205282      -0.26513767       2.67556221       0.00000000
