10
Lattice="16.28999089631971 0.0 0.0 0.0 16.28999089631971 0.0 0.0 0.0 34.63643526849801" Properties=species:S:1:pos:R:3:initial_magmoms:R:1 pbc="T T T"
Si       1.08496287      -1.14851523       1.72295580       0.00000000
Si       0.31482054       2.30886527      -0.27951619       0.00000000
Si      -0.08772165      -1.41353724      -1.92149196       0.00000000
Si      -2.44183842       0.11888165       0.21010473       0.00000000
Si      -2.11934529      -2.06039685      -0.83723238       0.00000000
Si      -2.01319965       2.53562207      -0.53994769       0.00000000
Si       3.30100560      -0.30283617       1.55534999       0.00000000
Si       0.72322713      -3.47686122       1.35979257       0.00000000
Si      -0.78843600      -0.16283991      -3.76619489       0.00000000
Si       0.65075292       3.46809425       1.73521710       0.00000000
