10
Lattice="16.28999089631971 0.0 0.0 0.0 16.28999089631971 0.0 0.0 0.0 34.63643526849801" Properties=species:S:1:pos:R:3:initial_magmoms:R:1 pbc="T T T"
Si      -1.74796587      -0.40130415       1.46387512       0.00000000
Si       2.12815818       0.12873987       0.90290310       0.00000000
Si      -0.33593238      -1.15922898      -2.01473329       0.00000000
Si      -0.16931826       2.34339795      -0.18527040       0.00000000
Si      -3.29263254       0.12197952      -0.27161908       0.00000000
Si       3.11678199       0.83228868      -1.09167178       0.00000000
Si       1.66144968       2.59680519      -1.65004606       0.00000000
Si      -0.03015279       2.78461260       2.15722767       0.00000000
Si      -2.66395257      -0.93247218      -2.27516479       0.00000000
Si      -1.75534524       1.36365219       3.03879471       0.00000000
