10
Lattice="16.28999089631971 0.0 0.0 0.0 16.28999089631971 0.0 0.0 0.0 34.63643526849801" Properties=species:S:1:pos:R:3:initial_magmoms:R:1 pbc="T T T"
Si       1.34967537      -1.34759025       1.35380047       0.00000000
Si       1.34118828       1.35374787      -1.35870845       0.00000000
Si      -1.36021500      -1.32493086      -1.37785895       0.00000000
Si      -1.36290285       1.36317978       1.34742736       0.00000000
Si      -0.43717473       2.20429764      -2.65609652       0.00000000
Si      -2.22930279       0.50236731      -2.77961705       0.00000000
Si       2.72593602       0.01747917      -2.68334849       0.00000000
Si      -0.00506619      -2.70706406       2.70888248       0.00000000
Si       2.70847314      -2.70824019      -0.01177639       0.00000000
Si       2.70881523       0.00664632       2.70874393       0.00000000
