10
Lattice="16.28999089631971 0.0 0.0 0.0 16.28999089631971 0.0 0.0 0.0 34.63643526849801" Properties=species:S:1:pos:R:3:initial_magmoms:R:1 pbc="T T T"
Si      -1.21560867      -1.49401196      -1.38230627       0.00000000
Si       1.41617115      -0.82538498       1.75603361       0.00000000
Si       1.49281560       1.27465992      -1.38556209       0.00000000
Si      -1.71870903       1.27016388       1.37801135       0.00000000
Si       3.01948182       1.09499751       1.80764193       0.00000000
Si      -2.62659308      -2.63265038       0.19995625       0.00000000
Si       2.60239266       2.72701116       0.14703175       0.00000000
Si      -2.48253247      -0.10765898      -2.84593893       0.00000000
Si       0.23159493       2.62194066      -2.84815566       0.00000000
Si      -1.77569145      -0.10686566       3.46811357       0.00000000
