10
Lattice="16.28999089631971 0.0 0.0 0.0 16.28999089631971 0.0 0.0 0.0 34.63643526849801" Properties=species:S:1:pos:R:3:initial_magmoms:R:1 pbc="T T T"
Si       1.45533231      -1.76451651       0.55837429       0.00000000
Si      -1.83076794      -0.25340724       1.46477567       0.00000000
Si       0.92390364       2.16699354       0.21287565       0.00000000
Si      -1.05221997      -0.71842158      -2.08175483       0.00000000
Si      -1.66144968      -2.59680519       1.65004606       0.00000000
Si      -0.96169644       3.36776202      -0.53506395       0.00000000
Si       0.46670850      -2.46806532       2.55294916       0.00000000
Si       0.07053570       0.69203178      -3.55948453       0.00000000
Si      -3.57135444       0.75412926       0.26427615       0.00000000
Si       2.70120780       2.11141206      -1.40745233       0.00000000
