10
Lattice="16.28999089631971 0.0 0.0 0.0 16.28999089631971 0.0 0.0 0.0 34.63643526849801" Properties=species:S:1:pos:R:3:initial_magmoms:R:1 pbc="T T T"
Si      -1.35632169      -1.35681039      -1.35719484       0.00000000
Si      -1.35529542       1.36031274       1.35664065       0.00000000
Si       1.35881406       1.35824391      -1.35729875       0.00000000
Si       1.35845568      -1.35666378       1.36155903       0.00000000
Si      -2.71314837      -2.71482624      -0.00010391       0.00000000
Si      -2.71327869       2.71551042      -0.00031173       0.00000000
Si      -2.71469592       0.00070047      -2.71435504       0.00000000
Si       0.00149868      -2.71425609      -2.71487459       0.00000000
Si       0.00205254       2.71565703      -2.71515168       0.00000000
Si       2.71648782       0.00123804      -2.71497850       0.00000000
