10
Lattice="16.28999089631971 0.0 0.0 0.0 16.28999089631971 0.0 0.0 0.0 34.63643526849801" Properties=species:S:1:pos:R:3:initial_magmoms:R:1 pbc="T T T"
Si      -1.45062450      -1.43785314       1.16295360       0.00000000
Si      -0.63407196       2.26646028      -0.15489423       0.00000000
Si       1.86751818       0.00508248       1.48050062       0.00000000
Si      -0.30576330      -0.91166985      -2.18157709       0.00000000
Si       1.01649600       1.80033822       2.90409354       0.00000000
Si      -0.54995040      -3.51287334       0.47566243       0.00000000
Si      -2.28747438       2.40111342       1.50675505       0.00000000
Si      -3.46424769      -1.14696261       0.00471056       0.00000000
Si       0.97741629       3.42419058       1.10847046       0.00000000
Si      -1.98311202       0.62367894      -3.13588069       0.00000000
