10
Lattice="16.28999089631971 0.0 0.0 0.0 16.28999089631971 0.0 0.0 0.0 34.63643526849801" Properties=species:S:1:pos:R:3:initial_magmoms:R:1 pbc="T T T"
Si      -1.05439469      -2.03078700      -0.45824029       0.00000000
Si      -0.96415623       0.24740275       2.15788576       0.00000000
Si      -0.32370348       1.75451119      -1.60030811       0.00000000
Si       2.36107260      -0.49848444      -0.06615563       0.00000000
Si       1.43619156       3.16211380      -0.79532227       0.00000000
Si      -0.91176107      -3.04842330       1.70186220       0.00000000
Si       0.45093978      -3.00758427      -1.96004233       0.00000000
Si       3.38719599       1.67633548      -0.28439993       0.00000000
Si      -2.42804798       2.05121725       2.11902366       0.00000000
Si       2.59152723      -1.94857137      -2.04843456       0.00000000
