10
Lattice="16.28999089631971 0.0 0.0 0.0 16.28999089631971 0.0 0.0 0.0 34.63643526849801" Properties=species:S:1:pos:R:3:initial_magmoms:R:1 pbc="T T T"
Si      -1.76386491       1.04673024       1.16638261       0.00000000
Si       0.59033331      -2.24052660       0.46922005       0.00000000
Si       1.77627789       1.34728074       0.82036443       0.00000000
Si      -0.74130903       0.69735861      -2.15650030       0.00000000
Si      -3.47135013      -0.45450729       0.49931913       0.00000000
Si      -0.37957329       3.02570460      -1.79333707       0.00000000
Si      -1.20394503       3.31923411       0.43060040       0.00000000
Si       2.88414450      -0.07845264       2.42198873       0.00000000
Si       0.66803661       3.18497193       1.97590583       0.00000000
Si       1.87071102      -2.25756594       2.45562072       0.00000000
