10
Lattice="16.28999089631971 0.0 0.0 0.0 16.28999089631971 0.0 0.0 0.0 34.63643526849801" Properties=species:S:1:pos:R:3:initial_magmoms:R:1 pbc="T T T"
Si      -2.23889760       0.30703392       0.81939461       0.00000000
Si       1.59904269      -1.73261159       0.89043398       0.00000000
Si      -0.92786211      -0.73310701      -2.23644124       0.00000000
Si       1.31171967       1.92150324       1.09499688       0.00000000
Si       1.64644659       1.91049120      -2.20426397       0.00000000
Si       0.54263619      -2.61570878      -2.39223601       0.00000000
Si      -0.13525587       1.06272702      -3.55051369       0.00000000
Si       3.62986812      -0.83020519      -0.03020299       0.00000000
Si       0.82241694      -3.65812217      -0.26611188       0.00000000
Si       0.77921586       1.63833417       3.39271000       0.00000000
