10
Lattice="16.28999089631971 0.0 0.0 0.0 16.28999089631971 0.0 0.0 0.0 34.63643526849801" Properties=species:S:1:pos:R:3:initial_magmoms:R:1 pbc="T T T"
Si       0.33744735       2.22725839      -0.79913228       0.00000000
Si       1.69525143      -1.69451742      -0.05133123       0.00000000
Si      -1.80714092      -0.50394907      -1.51551807       0.00000000
Si      -0.27034884      -0.47964765       2.42863893       0.00000000
Si      -3.00605723       1.57277506      -1.77047701       0.00000000
Si      -1.20721932       2.75054206      -2.53462648       0.00000000
Si       2.51962317      -1.98804693      -2.27526870       0.00000000
Si      -1.00717812      -0.72065005      -3.78811977       0.00000000
Si      -2.98476294      -2.50924548      -1.04480865       0.00000000
Si       2.08541322       2.62856254      -2.26300740       0.00000000
