10
Lattice="16.28999089631971 0.0 0.0 0.0 16.28999089631971 0.0 0.0 0.0 34.63643526849801" Properties=species:S:1:pos:R:3:initial_magmoms:R:1 pbc="T T T"
Si      -1.79883791      -1.17776700       0.76414946       0.00000000
Si      -0.60426778       2.20739274      -0.50139732       0.00000000
Si       0.62867997      -1.05445170      -2.00354572       0.00000000
Si       1.54466667      -0.52328367       1.73549420       0.00000000
Si       3.29263254      -0.12197952       0.27161908       0.00000000
Si      -0.59992160      -3.25449113       1.01910840       0.00000000
Si       2.95670016      -1.28120850      -1.74311422       0.00000000
Si       1.38272778       3.22895493      -1.11415084       0.00000000
Si       0.20004120      -3.47119212      -1.25349329       0.00000000
Si      -1.60712579       3.09861864       1.38261800       0.00000000
