10
Lattice="16.28999089631971 0.0 0.0 0.0 16.28999089631971 0.0 0.0 0.0 34.63643526849801" Properties=species:S:1:pos:R:3:initial_magmoms:R:1 pbc="T T T"
Si      -0.98862381      -0.70354881       1.99457488       0.00000000
Si       2.23089921       0.15876234       0.71396124       0.00000000
Si      -1.45533231       1.76451651      -0.55837429       0.00000000
Si      -0.04536765      -1.59624081      -1.76621673       0.00000000
Si      -3.11678199      -0.83228868       1.09167178       0.00000000
Si       1.26732942      -0.31410378      -3.26486685       0.00000000
Si       2.23039422      -2.01308562       1.82790426       0.00000000
Si       0.03761361      -2.74647119       2.39150865       0.00000000
Si      -3.28610025       1.51110927       0.90640138       0.00000000
Si      -2.50755228       1.04609493      -2.64012912       0.00000000
