10
Lattice="16.28999089631971 0.0 0.0 0.0 16.28999089631971 0.0 0.0 0.0 34.63643526849801" Properties=species:S:1:pos:R:3:initial_magmoms:R:1 pbc="T T T"
Si      -0.79996280       0.21670098       2.27260170       0.00000000
Si       0.32249313      -2.17927850      -1.04733711       0.00000000
Si       2.44183842      -0.11888165      -0.21010473       0.00000000
Si      -1.67182641       0.46416563      -1.75225824       0.00000000
Si       0.42863877       2.41674042      -0.75005242       0.00000000
Si       2.35411677      -1.53241889      -2.13159669       0.00000000
Si       2.75665896       2.18998362      -0.48962092       0.00000000
Si      -3.10123223      -1.38194816      -1.16066759       0.00000000
Si      -1.99887911       2.29342512       2.01764275       0.00000000
Si      -0.20004120       3.47119212       1.25349329       0.00000000
