10
Lattice="16.28999089631971 0.0 0.0 0.0 16.28999089631971 0.0 0.0 0.0 34.63643526849801" Properties=species:S:1:pos:R:3:initial_magmoms:R:1 pbc="T T T"
Si      -1.88110404      -1.46298861       0.16802144       0.00000000
Si      -0.55454418       1.94360877      -1.32903540       0.00000000
Si       0.68245326       0.86758911       2.16034495       0.00000000
Si       1.94768127      -1.18069920      -0.87928104       0.00000000
Si       2.35786347       2.47091607       1.49037201       0.00000000
Si      -1.18071549      -3.27767832       1.50450368       0.00000000
Si      -2.38886334      -2.17468242      -2.06758852       0.00000000
Si      -1.05538023       3.76069311       0.16611644       0.00000000
Si       3.63172518       0.47721555      -1.39061902       0.00000000
Si       2.54798406      -2.96640900       0.55078890       0.00000000
