10
Lattice="16.28999089631971 0.0 0.0 0.0 16.28999089631971 0.0 0.0 0.0 34.63643526849801" Properties=species:S:1:pos:R:3:initial_magmoms:R:1 pbc="T T T"
Si       1.27979127      -1.35106002       1.39169275       0.00000000
Si       1.36001952       1.34679204      -1.34275144       0.00000000
Si      -1.35935163      -1.36402686      -1.33876824       0.00000000
Si      -1.16450694       1.51391182       1.37776889       0.00000000
Si      -2.18435868      -0.34295337       2.50688268       0.00000000
Si       2.15980965       0.44637858       2.62589353       0.00000000
Si      -0.46962441      -2.08153620       2.80378637       0.00000000
Si       0.68931135       2.32898034       2.78168831       0.00000000
Si       0.00179190       2.70325124      -2.69849154       0.00000000
Si      -2.71314837      -0.01097946      -2.69859545       0.00000000
