10
Lattice="16.28999089631971 0.0 0.0 0.0 16.28999089631971 0.0 0.0 0.0 34.63643526849801" Properties=species:S:1:pos:R:3:initial_magmoms:R:1 pbc="T T T"
Si      -1.32877530      -0.70421670       1.80490565       0.00000000
Si       0.50083605      -1.81708434      -1.49515184       0.00000000
Si       2.08280682       0.69527349       0.99991981       0.00000000
Si      -1.26858375       1.81988622      -0.97640166       0.00000000
Si       2.37045564       2.36776520      -0.73907267       0.00000000
Si       2.24974674      -0.73256130      -2.56721938       0.00000000
Si       1.60655238       1.58285043      -2.81975377       0.00000000
Si      -3.48462648       0.97420716      -0.80879585       0.00000000
Si      -0.76444083       3.67663412       0.50330232       0.00000000
Si      -3.10505319      -2.05149744       0.98454122       0.00000000
