10
Lattice="16.28999089631971 0.0 0.0 0.0 16.28999089631971 0.0 0.0 0.0 34.63643526849801" Properties=species:S:1:pos:R:3:initial_magmoms:R:1 pbc="T T T"
Si      -2.01878712      -0.59259599       1.13507922       0.00000000
Si       0.66709179       2.05118793       1.14579574       0.00000000
Si       1.78844652      -1.77048842      -0.03617258       0.00000000
Si       0.19981314      -1.74097094      -2.66284409       0.00000000
Si      -0.62198478      -2.01182219       2.54959739       0.00000000
Si       2.11460093       0.73132326       2.55127726       0.00000000
Si       0.67171815      -3.48870617       1.17382702       0.00000000
Si       3.53022286      -0.59802708       1.15308325       0.00000000
Si       0.75447135      -0.64586103       3.92443604       0.00000000
Si      -3.80962827      -1.36936835      -0.24819829       0.00000000
