10
Lattice="16.28999089631971 0.0 0.0 0.0 16.28999089631971 0.0 0.0 0.0 34.63643526849801" Properties=species:S:1:pos:R:3:initial_magmoms:R:1 pbc="T T T"
Si      -1.35606105      -1.35772537      -1.35816466       0.00000000
Si      -1.35762489       1.35713619       1.35767975       0.00000000
Si       1.35882320       1.35672894      -1.35761048       0.00000000
Si       1.35793013      -1.35468912       1.36197467       0.00000000
Si      -2.71407690      -2.71302524      -0.00114300       0.00000000
Si      -2.71453302       2.71278999      -0.00055418       0.00000000
Si      -2.71381626      -0.00049196      -2.71490922       0.00000000
Si       0.00144981       2.71394658      -2.71483995       0.00000000
Si      -2.71425609       0.00432499       2.71463213       0.00000000
Si       2.71532376       2.71476108      -0.00083127       0.00000000
