10
Lattice="16.28999089631971 0.0 0.0 0.0 16.28999089631971 0.0 0.0 0.0 34.63643526849801" Properties=species:S:1:pos:R:3:initial_magmoms:R:1 pbc="T T T"
Si       1.33998282       1.36093176      -1.36897123       0.00000000
Si      -1.38505725       1.36283769       1.34985191       0.00000000
Si      -1.37687967      -1.35006633      -1.37122260       0.00000000
Si       1.29357261      -1.40067936       1.52732910       0.00000000
Si      -2.18569446      -0.44049789       2.78283131       0.00000000
Si      -0.59013783      -2.29086270       2.75446405       0.00000000
Si       2.36434104       0.32749416       2.88712168       0.00000000
Si       2.68961488      -2.71080098       0.01291940       0.00000000
Si       2.69398060       2.72489346       0.01336967       0.00000000
Si       2.69606898       0.00755856      -2.72973363       0.00000000
