10
Lattice="16.28999089631971 0.0 0.0 0.0 16.28999089631971 0.0 0.0 0.0 34.63643526849801" Properties=species:S:1:pos:R:3:initial_magmoms:R:1 pbc="T T T"
Si      -1.88351496      -0.63083025       1.28534602       0.00000000
Si       0.72197280       1.95551676       1.27354191       0.00000000
Si       1.74438207      -1.73320713      -0.10079465       0.00000000
Si      -0.20621511      -1.25981973      -2.46497988       0.00000000
Si      -0.59546466      -1.99278828       2.64410296       0.00000000
Si       2.14170146       0.71296443       2.64275560       0.00000000
Si       0.68994666      -3.35930751       1.21304588       0.00000000
Si      -0.41690997       0.82935648      -3.55824493       0.00000000
Si       3.43411023      -0.68137812       1.18917790       0.00000000
Si       2.38011954       3.11611410       0.11039712       0.00000000
