10
Lattice="16.28999089631971 0.0 0.0 0.0 16.28999089631971 0.0 0.0 0.0 34.63643526849801" Properties=species:S:1:pos:R:3:initial_magmoms:R:1 pbc="T T T"
Si      -1.33998282      -1.36093176       1.36897123       0.00000000
Si       1.35608616      -1.35337320      -1.36076239       0.00000000
Si      -1.35767376       1.36181142      -1.36045066       0.00000000
Si       1.35399778       1.36396170       1.38234090       0.00000000
Si       2.71278089      -2.70640431       0.00232064       0.00000000
Si      -2.71686249      -2.71099809      -0.00225137       0.00000000
Si      -0.00041440      -2.71140534      -2.71754159       0.00000000
Si       2.70986498       2.72214045      -0.00200891       0.00000000
Si       2.71486601       0.00382815      -2.71716059       0.00000000
Si      -2.71536381       0.00377928      -2.71743768       0.00000000
