10
Lattice="16.28999089631971 0.0 0.0 0.0 16.28999089631971 0.0 0.0 0.0 34.63643526849801" Properties=species:S:1:pos:R:3:initial_magmoms:R:1 pbc="T T T"
Si       1.35771448       1.35568638      -1.35591329       0.00000000
Si      -1.35733796       1.35640314       1.35660602       0.00000000
Si      -1.35699362      -1.35804843      -1.35819930       0.00000000
Si       1.35774706      -1.35892809       1.35691775       0.00000000
Si       2.70787855       0.00653229      -2.71262322       0.00000000
Si      -2.71153470       0.00026064      -2.71511704       0.00000000
Si       2.71385698       2.71368594      -0.00031173       0.00000000
Si      -2.71451577       2.71313208      -0.00027709       0.00000000
Si      -2.71479270      -0.00094482       2.71362767       0.00000000
Si       0.00063368       2.71513575       2.71362767       0.00000000
