10
Lattice="16.28999089631971 0.0 0.0 0.0 16.28999089631971 0.0 0.0 0.0 34.63643526849801" Properties=species:S:1:pos:R:3:initial_magmoms:R:1 pbc="T T T"
Si       0.00750969      -0.44764920       2.30076113       0.00000000
Si      -0.69454044      -1.93626198      -1.25713012       0.00000000
Si       1.95882363       0.80342280      -1.18086065       0.00000000
Si      -1.69225407       1.82361663       0.05638815       0.00000000
Si      -2.06400816      -0.58130865      -2.60957976       0.00000000
Si       0.67277700       2.14324272      -2.62475053       0.00000000
Si       2.23441038      -0.95348628       2.67899122       0.00000000
Si      -0.21582621       1.72196703       3.18520300       0.00000000
Si      -3.44287521       0.74530008      -1.15252803       0.00000000
Si      -0.61027227       3.51323172      -1.21660547       0.00000000
