10
Lattice="16.28999089631971 0.0 0.0 0.0 16.28999089631971 0.0 0.0 0.0 34.63643526849801" Properties=species:S:1:pos:R:3:initial_magmoms:R:1 pbc="T T T"
Si       1.35717781      -1.35672894       1.35688311       0.00000000
Si       1.35696468       1.35664749      -1.35740266       0.00000000
Si      -1.35765747       1.35780408       1.35646747       0.00000000
Si      -1.35798327      -1.35713619      -1.35733338       0.00000000
Si       2.71451577      -2.71313208       0.00027709       0.00000000
Si       0.00298107      -2.71287144      -2.71483995       0.00000000
Si      -0.00027693      -2.71407690       2.71390477       0.00000000
Si       0.00013032       2.71394658       2.71445895       0.00000000
Si      -2.71526607      -2.71378368      -0.00083127       0.00000000
Si       2.71514945       0.00200367       2.71390477       0.00000000
