10
Lattice="16.28999089631971 0.0 0.0 0.0 16.28999089631971 0.0 0.0 0.0 34.63643526849801" Properties=species:S:1:pos:R:3:initial_magmoms:R:1 pbc="T T T"
Si      -0.93136446      -1.78158843       1.20947036       0.00000000
Si      -1.33594290       1.31662296      -1.53571113       0.00000000
Si       1.22870324       1.51290117       1.51080751       0.00000000
Si       1.38254437      -1.37595114      -1.53612676       0.00000000
Si       1.90077326      -0.54709965       2.40719896       0.00000000
Si       2.63968766       2.65153959      -0.07145501       0.00000000
Si      -2.61764010      -2.72896596      -0.15763050       0.00000000
Si      -2.75105520       2.67406866      -0.15735341       0.00000000
Si       2.77248374      -2.73007368      -0.14194019       0.00000000
Si       1.02559138      -3.64628844       1.13108806       0.00000000
