10
Lattice="16.28999089631971 0.0 0.0 0.0 16.28999089631971 0.0 0.0 0.0 34.63643526849801" Properties=species:S:1:pos:R:3:initial_magmoms:R:1 pbc="T T T"
Si      -0.69015843      -1.98006579      -1.03455626       0.00000000
Si      -0.80542647       0.08404011       2.20848962       0.00000000
Si      -1.49472153       1.55090574      -1.01276993       0.00000000
Si       2.34510744       0.05641227       0.44996218       0.00000000
Si      -3.40832412       1.38479661       0.36541460       0.00000000
Si       0.58455036      -2.03579388      -3.07000216       0.00000000
Si       2.48774105      -0.96122403       2.61006467       0.00000000
Si      -2.16657000      -1.88271675       2.44474488       0.00000000
Si      -0.94630239       3.64756625      -0.18184139       0.00000000
Si       1.00594008       0.48848823       3.65767888       0.00000000
