10
Lattice="16.28999089631971 0.0 0.0 0.0 16.28999089631971 0.0 0.0 0.0 34.63643526849801" Properties=species:S:1:pos:R:3:initial_magmoms:R:1 pbc="T T T"
Si       1.35839246      -1.35378083      -1.35809539       0.00000000
Si      -1.35692804      -1.35767414       1.35767975       0.00000000
Si       1.35815300       1.35755025       1.35740266       0.00000000
Si      -1.35624386       1.35809271      -1.36093558       0.00000000
Si      -0.00774876      -2.71495694      -2.70429315       0.00000000
Si       2.70609837       0.00403328      -2.71810270       0.00000000
Si      -2.71468325       0.00047648       2.71442431       0.00000000
Si       0.00020100       2.71493079       2.71497850       0.00000000
Si       0.00057441      -2.71484291       2.71522095       0.00000000
Si      -2.71649144      -2.71362116       0.00038100       0.00000000
