10
Lattice="16.28999089631971 0.0 0.0 0.0 16.28999089631971 0.0 0.0 0.0 34.63643526849801" Properties=species:S:1:pos:R:3:initial_magmoms:R:1 pbc="T T T"
Si      -0.82242509      -1.88691957       1.22761051       0.00000000
Si      -0.36468423      -0.30863034      -2.38335561       0.00000000
Si       1.91552481       0.89091639       1.22944278       0.00000000
Si      -1.87641578       1.91057265       0.14882973       0.00000000
Si       0.01200573       2.45834019      -2.40164366       0.00000000
Si      -2.11483386      -0.49257702       2.68118821       0.00000000
Si       0.59179941       2.25427536       2.66396350       0.00000000
Si      -3.53456252       0.74997531       1.31197452       0.00000000
Si      -2.51215325      -2.93874858      -0.06236204       0.00000000
Si      -0.79971520       3.66300198       1.27080910       0.00000000
