10
Lattice="16.28999089631971 0.0 0.0 0.0 16.28999089631971 0.0 0.0 0.0 34.63643526849801" Properties=species:S:1:pos:R:3:initial_magmoms:R:1 pbc="T T T"
Si       1.35650056       1.35803214       1.35677920       0.00000000
Si      -1.35737339       1.35721764      -1.35722947       0.00000000
Si       1.35795200      -1.35738054      -1.35757584       0.00000000
Si      -1.35882320      -1.35672894       1.35761048       0.00000000
Si       0.00041440       2.71140534       2.71754159       0.00000000
Si      -2.71488425      -2.71445431      -0.00055418       0.00000000
Si       2.71487316      -2.71489740       0.00045027       0.00000000
Si      -0.00020100      -2.71493079      -2.71497850       0.00000000
Si       2.71549218       0.00166158      -2.71456286       0.00000000
Si      -2.71494941       2.71518462       0.00010391       0.00000000
