10
Lattice="16.28999089631971 0.0 0.0 0.0 16.28999089631971 0.0 0.0 0.0 34.63643526849801" Properties=species:S:1:pos:R:3:initial_magmoms:R:1 pbc="T T T"
Si      -1.35696468      -1.35664749       1.35740266       0.00000000
Si       1.35756087       1.35861858       1.35677920       0.00000000
Si      -1.35510762       1.35842310      -1.36225176       0.00000000
Si       1.35861646      -1.35785295      -1.35965403       0.00000000
Si      -0.00793201       2.71616202      -2.70505515       0.00000000
Si       0.00021314      -2.71337643       2.71428577       0.00000000
Si      -2.71462215       0.00115659       2.71387013       0.00000000
Si      -2.71494795      -2.71378368       0.00006927       0.00000000
Si       2.71526558      -2.71409319       0.00176646       0.00000000
Si       2.71520042       0.00117288       2.71421649       0.00000000
