10
Lattice="16.28999089631971 0.0 0.0 0.0 16.28999089631971 0.0 0.0 0.0 34.63643526849801" Properties=species:S:1:pos:R:3:initial_magmoms:R:1 pbc="T T T"
Si      -1.35211235       1.35575154      -1.35844175       0.00000000
Si       1.35899325       1.35591444       1.36166294       0.00000000
Si       1.36265850      -1.36122498      -1.35813002       0.00000000
Si      -1.35586720      -1.35817875       1.38434982       0.00000000
Si      -2.71112824       2.71124244       0.00166255       0.00000000
Si      -2.71008399      -0.00298107      -2.71546341       0.00000000
Si       0.00490329       2.71156824      -2.71553268       0.00000000
Si      -2.70986498      -2.72214045       0.00200891       0.00000000
Si       0.00500103      -2.71831230      -2.71515168       0.00000000
Si       2.72051145       2.71391400      -0.00138546       0.00000000
