10
Lattice="16.28999089631971 0.0 0.0 0.0 16.28999089631971 0.0 0.0 0.0 34.63643526849801" Properties=species:S:1:pos:R:3:initial_magmoms:R:1 pbc="T T T"
Si      -2.22892649      -0.65402721       0.14751666       0.00000000
Si       1.15740450      -1.55080800       1.30749153       0.00000000
Si       0.77532255       0.50122701      -2.19809868       0.00000000
Si       0.24423597       1.97519508       1.33118286       0.00000000
Si       3.22877574      -1.19612583       0.10903556       0.00000000
Si      -3.06723500       0.78333723      -1.48825918       0.00000000
Si      -0.24107571       3.60080676      -0.27830391       0.00000000
Si      -2.89846080       0.01672983       2.27921726       0.00000000
Si       3.56047272       1.14139143       0.02223660       0.00000000
Si       2.52348390       2.04213069      -1.88429240       0.00000000
