10
Lattice="16.28999089631971 0.0 0.0 0.0 16.28999089631971 0.0 0.0 0.0 34.63643526849801" Properties=species:S:1:pos:R:3:initial_magmoms:R:1 pbc="T T T"
Si       1.35692116      -1.35751686       1.35802611       0.00000000
Si      -1.35795200       1.35738054       1.35757584       0.00000000
Si      -1.35815300      -1.35755025      -1.35740266       0.00000000
Si       1.35754018       1.35904212      -1.35698702       0.00000000
Si      -0.00026390       2.70972747      -2.71632932       0.00000000
Si       0.00023946      -2.71133108      -2.71549804       0.00000000
Si       2.70895858       0.00228386      -2.71819969       0.00000000
Si       2.71415509      -2.71444247      -0.00020782       0.00000000
Si       2.71459492       2.71464705       0.00006927       0.00000000
Si      -0.00145144       2.71541268       2.71435504       0.00000000
