10
Lattice="16.28999089631971 0.0 0.0 0.0 16.28999089631971 0.0 0.0 0.0 34.31052061344573" Properties=species:S:1:pos:R:3:initial_magmoms:R:1 pbc="T T T"
Si       1.12920488       1.10618874      -1.73148139       0.00000000
Si      -0.90838481       1.97994591       0.86984080       0.00000000
Si       1.67941592      -1.43244486       0.83405491       0.00000000
Si      -1.99046763      -1.33089300      -0.85824384       0.00000000
Si      -2.23271622       0.59512257       2.45466664       0.00000000
Si       1.29164876      -2.90859579      -1.26780876       0.00000000
Si       0.15222516      -2.52848493       2.37294579       0.00000000
Si      -0.68574384       1.20521565      -3.23400855       0.00000000
Si       0.32349659       3.35732569      -1.35797685       0.00000000
Si      -1.09906254      -3.49697430      -0.75119496       0.00000000
