10
Lattice="16.28999089631971 0.0 0.0 0.0 16.28999089631971 0.0 0.0 0.0 34.31052061344573" Properties=species:S:1:pos:R:3:initial_magmoms:R:1 pbc="T T T"
Si      -1.35985662      -1.33524895       1.37520418       0.00000000
Si      -1.40742342       1.36783872      -1.32266788       0.00000000
Si       1.34996859       1.38583917       1.37287106       0.00000000
Si       1.35249354      -1.44197614      -1.41829821       0.00000000
Si       2.71702539      -2.69004005       0.02496092       0.00000000
Si      -2.70368388      -2.70827652      -0.01249247       0.00000000
Si      -0.00623907      -2.69145484       2.73424466       0.00000000
Si       2.71083519       0.02365308       2.73318103       0.00000000
Si       2.71212210       2.74299165      -0.01318897       0.00000000
Si      -2.72155401       0.02363679       2.73397017       0.00000000
