10
Lattice="16.28999089631971 0.0 0.0 0.0 16.28999089631971 0.0 0.0 0.0 34.31052061344573" Properties=species:S:1:pos:R:3:initial_magmoms:R:1 pbc="T T T"
Si      -2.32829712       0.45836802       0.00964126       0.00000000
Si       1.49656230       1.75741407       0.58719058       0.00000000
Si      -0.11319921      -2.17268594       1.02049838       0.00000000
Si      -0.88612713       0.90865620      -2.84293702       0.00000000
Si       0.03627783      -3.52661300      -1.20841721       0.00000000
Si      -3.23532432      -1.38469398      -1.23871342       0.00000000
Si       1.95038541      -2.34039149       2.15353534       0.00000000
Si       2.38296636       2.45377899      -1.50595821       0.00000000
Si       3.40174296       1.10130174       1.78081995       0.00000000
Si      -1.35861858      -2.11018121       3.10815749       0.00000000
