10
Lattice="16.28999089631971 0.0 0.0 0.0 16.28999089631971 0.0 0.0 0.0 34.31052061344573" Properties=species:S:1:pos:R:3:initial_magmoms:R:1 pbc="T T T"
Si      -1.84005228      -0.79018068       1.22900354       0.00000000
Si       0.73722839      -1.82423730      -1.35783961       0.00000000
Si      -1.82330616       1.04061725      -1.34449281       0.00000000
Si       2.14051415       0.39559679       1.25816749       0.00000000
Si       1.77200177      -0.13532268      -2.61360537       0.00000000
Si      -0.76658296      -0.92147808       3.29954168       0.00000000
Si       3.39606590       0.46688020      -0.94086362       0.00000000
Si       1.51458718      -1.46191512       2.89282454       0.00000000
Si      -0.90625310       2.70406409      -2.65965011       0.00000000
Si      -3.55437930       0.87570707       1.51772673       0.00000000
