10
Lattice="16.28999089631971 0.0 0.0 0.0 16.28999089631971 0.0 0.0 0.0 34.31052061344573" Properties=species:S:1:pos:R:3:initial_magmoms:R:1 pbc="T T T"
Si      -1.43466030      -1.14124482      -1.43531281       0.00000000
Si       0.43709328       1.82651625      -1.39455189       0.00000000
Si       1.57921776      -1.65185324       0.67228072       0.00000000
Si      -0.17205498       0.49337523       2.34166003       0.00000000
Si       0.01143558       3.22989975       0.37014210       0.00000000
Si       1.08590769      -1.37068947       2.93396288       0.00000000
Si       1.16225892       2.41162047       2.26377510       0.00000000
Si       0.66013596      -3.47860637      -0.40297729       0.00000000
Si      -0.30954258      -0.91005714      -3.50149352       0.00000000
Si      -1.68599871      -3.20829400      -0.33617467       0.00000000
