10
Lattice="16.28999089631971 0.0 0.0 0.0 16.28999089631971 0.0 0.0 0.0 34.31052061344573" Properties=species:S:1:pos:R:3:initial_magmoms:R:1 pbc="T T T"
Si      -1.17463932      -1.59896124       1.32029702       0.00000000
Si       1.66386060       1.26941454       1.19397591       0.00000000
Si      -1.87812297       1.78188165      -0.26726679       0.00000000
Si       1.61038053      -1.33907058      -1.57528750       0.00000000
Si       2.46039273       0.86830587      -2.11670782       0.00000000
Si       0.23667741       2.47964751       2.66288560       0.00000000
Si      -2.49083874      -0.22403637       2.66383943       0.00000000
Si      -2.93842278      -2.37138417      -0.16282551       0.00000000
Si       2.94490620      -0.22380831       2.62977593       0.00000000
Si       2.55318057       2.97411417      -0.65236829       0.00000000
