10
Lattice="16.28999089631971 0.0 0.0 0.0 16.28999089631971 0.0 0.0 0.0 34.31052061344573" Properties=species:S:1:pos:R:3:initial_magmoms:R:1 pbc="T T T"
Si      -1.35552348      -1.35568638       1.35598684       0.00000000
Si      -1.35466011       1.35804843      -1.35904048       0.00000000
Si       1.35780408      -1.35166275      -1.36298619       0.00000000
Si       1.35944937       1.35848826       1.35578098       0.00000000
Si       0.01172880       2.70894555      -2.71593655       0.00000000
Si      -2.71313208       0.00115659       2.71265990       0.00000000
Si       0.00281817      -2.71430496       2.71272852       0.00000000
Si      -2.71288773       2.71432125      -0.00099501       0.00000000
Si      -2.71371852      -2.71386513      -0.00188708       0.00000000
Si       0.00257382       2.71637379       2.71327749       0.00000000
