10
Lattice="16.28999089631971 0.0 0.0 0.0 16.28999089631971 0.0 0.0 0.0 34.31052061344573" Properties=species:S:1:pos:R:3:initial_magmoms:R:1 pbc="T T T"
Si      -1.33998282      -1.34322453      -1.37111779       0.00000000
Si       1.36704051       1.37266056      -1.36682897       0.00000000
Si       1.35799956      -1.36050822       1.42169153       0.00000000
Si      -1.33993395       1.30807071       1.51240859       0.00000000
Si       2.13552126       0.44706276       2.76570399       0.00000000
Si       0.61154289       2.34289296       2.60331221       0.00000000
Si      -2.71329498      -2.70570384       0.01386146       0.00000000
Si       0.00915498      -2.70177795      -2.72813395       0.00000000
Si      -2.69794980       2.73191445       0.02525256       0.00000000
Si      -2.70435177       0.01220121      -2.72624687       0.00000000
