10
Lattice="16.28999089631971 0.0 0.0 0.0 16.28999089631971 0.0 0.0 0.0 34.31052061344573" Properties=species:S:1:pos:R:3:initial_magmoms:R:1 pbc="T T T"
Si      -1.52590059       0.10674837      -1.75748878       0.00000000
Si      -1.44686151      -1.68314796       0.76361537       0.00000000
Si      -0.35347671       1.64372616       1.64337192       0.00000000
Si       2.28662730      -0.57909321       0.27479311       0.00000000
Si       0.02285487      -2.90804193       2.16348540       0.00000000
Si      -2.69312796       1.73882718       1.81492462       0.00000000
Si       0.42168294       0.65966355       3.62343318       0.00000000
Si       1.01144610       3.44948895       1.03374225       0.00000000
Si       2.26053072      -2.44999971       1.72228617       0.00000000
Si      -3.28379847      -0.57233286       1.81883602       0.00000000
