10
Lattice="16.28999089631971 0.0 0.0 0.0 16.28999089631971 0.0 0.0 0.0 34.31052061344573" Properties=species:S:1:pos:R:3:initial_magmoms:R:1 pbc="T T T"
Si       0.65269143      -1.82480580      -1.32342614       0.00000000
Si       0.78783327      -0.00842193       2.25962353       0.00000000
Si      -0.66468087       1.73951136      -1.50691891       0.00000000
Si      -2.18621574      -0.88542666       0.43948370       0.00000000
Si       2.77773822       1.31329980       0.16541111       0.00000000
Si      -0.49813191      -1.00652652      -3.21705914       0.00000000
Si      -2.51258589       0.02409291       2.54621947       0.00000000
Si       0.25945083       3.64384494      -0.66730569       0.00000000
Si       2.64028320      -1.44203967       2.19035055       0.00000000
Si       0.32635386       1.15779546      -3.52180536       0.00000000
