10
Lattice="16.28999089631971 0.0 0.0 0.0 16.28999089631971 0.0 0.0 0.0 34.31052061344573" Properties=species:S:1:pos:R:3:initial_magmoms:R:1 pbc="T T T"
Si      -1.85244993       1.43361774       0.06927298       0.00000000
Si       1.09947726       0.20266389       2.08381632       0.00000000
Si       1.18842066       0.69123357      -1.92705147       0.00000000
Si      -0.29971971      -2.35336743       0.19793750       0.00000000
Si       1.38036573      -2.14298208       2.19958008       0.00000000
Si       0.13745502       2.75533947      -2.02493944       0.00000000
Si      -2.64028320       1.44203967      -2.19035055       0.00000000
Si       2.94306543       1.54649115       1.71967856       0.00000000
Si       0.36048141      -0.57291930      -3.73233483       0.00000000
Si      -3.39651387       0.49736628       1.63959776       0.00000000
