10
Lattice="16.28999089631971 0.0 0.0 0.0 16.28999089631971 0.0 0.0 0.0 34.31052061344573" Properties=species:S:1:pos:R:3:initial_magmoms:R:1 pbc="T T T"
Si       1.20402648      -1.63721016       1.31553472       0.00000000
Si       0.85001220       2.20737645      -0.54142032       0.00000000
Si      -1.43553996      -1.72501326      -0.99617221       0.00000000
Si      -1.61038053       1.33907058       1.57528750       0.00000000
Si       2.08642320      -0.41658417      -2.63024598       0.00000000
Si       3.49106103      -1.05259464      -0.72587378       0.00000000
Si       0.05348007       2.60848512       2.76926341       0.00000000
Si       1.80553473       1.92906180      -2.74600974       0.00000000
Si       2.52569934      -0.45512631       2.87221904       0.00000000
Si      -1.32804225      -1.55701449      -3.35104180       0.00000000
