10
Lattice="16.28999089631971 0.0 0.0 0.0 16.28999089631971 0.0 0.0 0.0 34.31052061344573" Properties=species:S:1:pos:R:3:initial_magmoms:R:1 pbc="T T T"
Si      -1.35731538      -1.35599589      -1.35735926       0.00000000
Si       1.35562122      -1.35536058       1.36144222       0.00000000
Si       1.35759231       1.35855342      -1.35783961       0.00000000
Si      -1.36018242       1.35900954       1.35921203       0.00000000
Si      -0.00043983      -2.71388142      -2.71485577       0.00000000
Si       2.71513575       0.00206883      -2.71454698       0.00000000
Si      -2.71464705       0.00148239      -2.71509595       0.00000000
Si       2.71559187      -2.71495656       0.00013724       0.00000000
Si       2.71552671       2.71526607       0.00130380       0.00000000
Si      -0.00040725       2.71624347      -2.71482146       0.00000000
