10
Lattice="16.28999089631971 0.0 0.0 0.0 16.28999089631971 0.0 0.0 0.0 34.31052061344573" Properties=species:S:1:pos:R:3:initial_magmoms:R:1 pbc="T T T"
Si       0.90702720       1.84306200       1.24835468       0.00000000
Si      -2.14051415      -0.39559679      -1.25816749       0.00000000
Si       1.25555175       0.07128341      -2.19903112       0.00000000
Si      -0.62592696      -1.85751190       1.63465705       0.00000000
Si       2.34919719       2.29335018      -1.60422360       0.00000000
Si      -0.21809052       1.61187432       3.31453539       0.00000000
Si      -1.40328576      -2.21983408      -2.61600711       0.00000000
Si       3.23532432       1.38469398       1.23871342       0.00000000
Si      -2.90709711      -1.31707486       2.04137419       0.00000000
Si       3.27160215      -2.14191901       0.03029621       0.00000000
