10
Lattice="16.28999089631971 0.0 0.0 0.0 16.28999089631971 0.0 0.0 0.0 34.31052061344573" Properties=species:S:1:pos:R:3:initial_magmoms:R:1 pbc="T T T"
Si       1.52215389      -1.19104335       1.28053797       0.00000000
Si      -0.33267438       2.22513255       0.67897127       0.00000000
Si      -2.04602400      -1.08401805       0.55981077       0.00000000
Si       0.65577024       0.17572023      -2.29287044       0.00000000
Si      -3.08717166      -0.22108788      -1.38693495       0.00000000
Si      -0.37620126       2.19709746      -2.78464341       0.00000000
Si      -0.26836146      -1.72861335      -3.13248366       0.00000000
Si       1.00836729       2.22682671       2.63329962       0.00000000
Si       1.38412872      -0.07745895       3.37070174       0.00000000
Si       3.61854657      -0.69335127       0.33456207       0.00000000
