10
Lattice="16.28999089631971 0.0 0.0 0.0 16.28999089631971 0.0 0.0 0.0 34.31052061344573" Properties=species:S:1:pos:R:3:initial_magmoms:R:1 pbc="T T T"
Si      -1.52215389       1.19104335      -1.28053797       0.00000000
Si       2.09639268       0.49769208      -0.94597589       0.00000000
Si      -0.13802517       1.11358440       2.09016377       0.00000000
Si      -0.33800121      -2.28550329      -0.64647919       0.00000000
Si       1.65190374      -0.96378156      -2.74069161       0.00000000
Si       2.10792600       0.64075086       2.84317719       0.00000000
Si      -3.56817789       0.10702530      -0.72072720       0.00000000
Si      -0.51378660       3.41787006       1.35276165       0.00000000
Si       3.61652661       0.04722471       0.86750769       0.00000000
Si      -1.88206515      -3.22175475       0.92384559       0.00000000
