10
Lattice="16.28999089631971 0.0 0.0 0.0 16.28999089631971 0.0 0.0 0.0 34.31052061344573" Properties=species:S:1:pos:R:3:initial_magmoms:R:1 pbc="T T T"
Si      -1.79260047       1.59521454      -0.36643656       0.00000000
Si       1.73477097       0.85942782      -1.54044030       0.00000000
Si       1.62308673       0.08505009       1.87884516       0.00000000
Si      -1.12278825      -2.20454199      -0.59144508       0.00000000
Si      -0.80731611      -2.57872329       1.79149052       0.00000000
Si      -0.09892917      -0.74575620       3.24491728       0.00000000
Si      -1.40483331       3.07136547       1.73542710       0.00000000
Si      -3.03501596       0.66380121      -2.51753586       0.00000000
Si       3.98072214       0.38659428      -0.78742689       0.00000000
Si       1.87279614      -0.25415658      -3.63060408       0.00000000
