10
Lattice="16.28999089631971 0.0 0.0 0.0 16.28999089631971 0.0 0.0 0.0 34.31052061344573" Properties=species:S:1:pos:R:3:initial_magmoms:R:1 pbc="T T T"
Si       0.13802517      -1.11358440      -2.09016377       0.00000000
Si       2.24595117      -0.47283354       0.75301342       0.00000000
Si      -0.37576143       2.30428566      -0.73740212       0.00000000
Si      -1.73477097      -0.85942782       1.54044030       0.00000000
Si      -0.11168424      -0.77437773       3.41928546       0.00000000
Si      -1.38412872       0.07745895      -3.37070174       0.00000000
Si       2.92547223       1.75296690       1.50661011       0.00000000
Si      -3.52737144       0.73578672       1.17400374       0.00000000
Si       2.23441785      -0.61589232      -3.03613967       0.00000000
Si       1.65535722       2.94870177      -1.77889856       0.00000000
