10
Lattice="16.28999089631971 0.0 0.0 0.0 16.28999089631971 0.0 0.0 0.0 34.31052061344573" Properties=species:S:1:pos:R:3:initial_magmoms:R:1 pbc="T T T"
Si       1.34571690       1.33564968      -1.36773477       0.00000000
Si       1.35231435      -1.35744570       1.35924634       0.00000000
Si      -1.36212093       1.35769005       1.35845720       0.00000000
Si      -1.36578618      -1.37176461      -1.38352791       0.00000000
Si      -0.04627989       2.44547109      -2.90920096       0.00000000
Si       2.70677898      -2.71269225       0.00006862       0.00000000
Si       2.71010214       0.00035838       2.71591940       0.00000000
Si      -2.71667678       2.71127502      -0.00205863       0.00000000
Si      -2.71437989      -2.71414206      -0.00332812       0.00000000
Si       2.70912474       2.71953405      -0.00325950       0.00000000
