10
Lattice="16.28999089631971 0.0 0.0 0.0 16.28999089631971 0.0 0.0 0.0 34.31052061344573" Properties=species:S:1:pos:R:3:initial_magmoms:R:1 pbc="T T T"
Si       1.35518139       1.35668007       1.35619271       0.00000000
Si      -1.35751086       1.35614250      -1.35725633       0.00000000
Si       1.35654975      -1.35819504      -1.35732495       0.00000000
Si      -1.35918873      -1.35681039       1.35691323       0.00000000
Si       0.00360009       2.71220355       2.71214524       0.00000000
Si       2.71386513       2.71426863       0.00037742       0.00000000
Si      -2.71494027       2.71396861      -0.00017155       0.00000000
Si      -0.00133578       2.71422595      -2.71475284       0.00000000
Si      -2.71469592      -0.00083079       2.71444404       0.00000000
Si       2.71441899      -0.00117288      -2.71509595       0.00000000
