10
Lattice="16.28999089631971 0.0 0.0 0.0 16.28999089631971 0.0 0.0 0.0 34.31052061344573" Properties=species:S:1:pos:R:3:initial_magmoms:R:1 pbc="T T T"
Si      -1.20104541       1.40108891      -1.53608287       0.00000000
Si       1.11550662       1.59225695       1.42419620       0.00000000
Si      -1.74586446      -0.94817574       1.38220010       0.00000000
Si       1.50068367      -1.29994200      -1.51913346       0.00000000
Si      -2.80605024       2.44332800      -0.21975901       0.00000000
Si      -2.73139317      -2.63894742       0.01612595       0.00000000
Si       2.77089642       2.64863087      -0.10042695       0.00000000
Si      -2.55668292       0.05822046      -2.91042585       0.00000000
Si       2.77586487      -2.70414000      -0.06042086       0.00000000
Si      -3.58259454       0.62960265       1.46444246       0.00000000
