10
Lattice="16.28999089631971 0.0 0.0 0.0 16.28999089631971 0.0 0.0 0.0 34.31052061344573" Properties=species:S:1:pos:R:3:initial_magmoms:R:1 pbc="T T T"
Si      -1.41872868      -1.91394468       0.30460897       0.00000000
Si      -0.17932032       0.63542403      -2.31156969       0.00000000
Si       2.37814452      -0.39032469      -0.08629101       0.00000000
Si      -0.14947704       1.35392706       2.22891560       0.00000000
Si      -0.03627783       3.52661300       1.20841721       0.00000000
Si      -2.01605040       2.21320242      -2.22932732       0.00000000
Si       2.78529678      -1.83558978       1.73004035       0.00000000
Si      -3.27160215       2.14191901      -0.03029621       0.00000000
Si      -0.62934786      -3.21090561       2.19525696       0.00000000
Si       3.51109773       1.79516225      -0.15631882       0.00000000
