10
Lattice="16.28999089631971 0.0 0.0 0.0 16.28999089631971 0.0 0.0 0.0 34.31052061344573" Properties=species:S:1:pos:R:3:initial_magmoms:R:1 pbc="T T T"
Si       0.40218381       1.53361458      -1.77213938       0.00000000
Si       0.96322770      -2.05623783      -0.88016828       0.00000000
Si      -2.35082619       0.39004776       0.56756495       0.00000000
Si       1.55636289       1.39694799       1.30959899       0.00000000
Si      -0.37781397      -2.05793199      -2.83449662       0.00000000
Si       2.08505484       0.44276220      -3.00477983       0.00000000
Si       1.44011745       0.33697494       3.40034605       0.00000000
Si       2.99434635      -1.41182172      -1.92166471       0.00000000
Si       0.84986559       3.64535081       0.88497175       0.00000000
Si      -1.43865135       1.89263477      -3.18501310       0.00000000
