10
Lattice="16.28999089631971 0.0 0.0 0.0 16.28999089631971 0.0 0.0 0.0 34.31052061344573" Properties=species:S:1:pos:R:3:initial_magmoms:R:1 pbc="T T T"
Si       1.45368702      -1.23383718      -1.43438643       0.00000000
Si      -1.24986654       1.49007888      -1.43129848       0.00000000
Si       1.60594965       1.20941847       1.38789564       0.00000000
Si      -1.65538980      -1.05637392       1.52462315       0.00000000
Si      -3.11567427       0.99303840       1.56486941       0.00000000
Si       0.37004364       1.32004386       3.42062357       0.00000000
Si       0.10044414      -2.58973169      -2.80327403       0.00000000
Si      -2.77089642      -2.64863087       0.10042695       0.00000000
Si      -2.61871524       0.13150917      -2.80433766       0.00000000
Si      -2.62764216       2.82440907      -0.01468491       0.00000000
