10
Lattice="16.28999089631971 0.0 0.0 0.0 16.28999089631971 0.0 0.0 0.0 34.31052061344573" Properties=species:S:1:pos:R:3:initial_magmoms:R:1 pbc="T T T"
Si      -2.26655753      -0.28028574       0.50587460       0.00000000
Si       1.25607303       1.08799281       1.65335629       0.00000000
Si       0.01972719       1.21166649      -2.01104367       0.00000000
Si       0.71332281      -2.25304709      -0.18922263       0.00000000
Si       3.10933746      -0.33233229       1.52589264       0.00000000
Si      -2.81280149      -2.00004059      -1.05902912       0.00000000
Si      -1.25090910      -3.49165466      -0.08052684       0.00000000
Si      -3.22453124       1.85611518       0.22003349       0.00000000
Si      -1.90664024       0.72255924      -3.24262049       0.00000000
Si       2.55415797      -2.61206729       1.22365109       0.00000000
