10
Lattice="16.28999089631971 0.0 0.0 0.0 16.28999089631971 0.0 0.0 0.0 34.31052061344573" Properties=species:S:1:pos:R:3:initial_magmoms:R:1 pbc="T T T"
Si       1.35804843       1.35635427      -1.35488891       0.00000000
Si      -1.35754344       1.35648459       1.35670736       0.00000000
Si       1.35765747      -1.35799956       1.35708478       0.00000000
Si      -1.35804843      -1.35809730      -1.36017273       0.00000000
Si       2.70469386       0.00827532      -2.70816522       0.00000000
Si       2.71443528      -0.00133578       2.71307162       0.00000000
Si       2.71396287       2.71428867       0.00020586       0.00000000
Si       0.00146610       2.71138905      -2.71694871       0.00000000
Si       0.00039096       2.71319724       2.71585078       0.00000000
Si      -2.71513575      -0.00206883       2.71454698       0.00000000
