10
Lattice="16.28999089631971 0.0 0.0 0.0 16.28999089631971 0.0 0.0 0.0 34.31052061344573" Properties=species:S:1:pos:R:3:initial_magmoms:R:1 pbc="T T T"
Si       1.35754344      -1.35648459      -1.35670736       0.00000000
Si      -1.35799956       1.35769005      -1.35698185       0.00000000
Si       1.35793440       1.35671265       1.35914341       0.00000000
Si      -1.35759231      -1.35855342       1.35783961       0.00000000
Si       2.71559187      -0.00013032      -2.71159627       0.00000000
Si      -2.71578735      -0.00011403      -2.71365490       0.00000000
Si      -2.71490769      -2.71454931       0.00048035       0.00000000
Si      -0.00013032       2.71471221      -2.71475284       0.00000000
Si       2.71520091      -2.71448415       0.00037742       0.00000000
Si       2.71500543       2.71521720       0.00034311       0.00000000
