10
Lattice="16.28999089631971 0.0 0.0 0.0 16.28999089631971 0.0 0.0 0.0 34.31052061344573" Properties=species:S:1:pos:R:3:initial_magmoms:R:1 pbc="T T T"
Si      -1.36039419      -1.33540533       1.36875036       0.00000000
Si       1.35376416      -1.35426915      -1.35701616       0.00000000
Si      -1.36028016       1.36026387      -1.35423701       0.00000000
Si       1.33636644       1.36394541       1.37880335       0.00000000
Si       2.71132389      -2.70803331       0.00373985       0.00000000
Si       2.72023452      -0.03696201       2.69975913       0.00000000
Si      -0.00301365      -2.71093293      -2.71300300       0.00000000
Si       2.71174743       0.00314397      -2.71303731       0.00000000
Si      -2.72018565      -2.71036278       0.00590141       0.00000000
Si       2.71145421       2.71920825       0.00634745       0.00000000
