10
Lattice="16.28999089631971 0.0 0.0 0.0 16.28999089631971 0.0 0.0 0.0 34.31052061344573" Properties=species:S:1:pos:R:3:initial_magmoms:R:1 pbc="T T T"
Si       1.34011314      -1.37645613      -1.34172395       0.00000000
Si       1.35259128       1.35356283       1.35336552       0.00000000
Si      -1.36453185       1.24806391      -1.44325913       0.00000000
Si      -1.36635633      -1.35466011       1.34753273       0.00000000
Si      -2.18471706      -0.71561970      -2.72401124       0.00000000
Si      -0.36025335      -2.48691285      -2.80663101       0.00000000
Si      -2.71702539       2.69004005      -0.02496092       0.00000000
Si       2.64911238      -0.05338233      -2.75777281       0.00000000
Si       2.70655092      -0.00033402       2.71014150       0.00000000
Si       2.72067435       2.70074258      -0.03061186       0.00000000
