10
Lattice="16.28999089631971 0.0 0.0 0.0 16.28999089631971 0.0 0.0 0.0 34.31052061344573" Properties=species:S:1:pos:R:3:initial_magmoms:R:1 pbc="T T T"
Si       1.35607734       1.35843117      -1.35639857       0.00000000
Si       1.35715248      -1.35754344       1.35749651       0.00000000
Si      -1.35798327      -1.35804843      -1.35759944       0.00000000
Si      -1.35853713       1.35739308       1.35787392       0.00000000
Si       0.00211770       2.71232802      -2.71317455       0.00000000
Si       2.71350675      -0.00110772       2.71499301       0.00000000
Si       2.71365336      -2.71495656       0.00065190       0.00000000
Si       2.71437012       2.71498167       0.00020586       0.00000000
Si      -2.71498914       2.71446364       0.00013724       0.00000000
Si      -0.00073305       2.71409875       2.71578216       0.00000000
