10
Lattice="16.28999089631971 0.0 0.0 0.0 16.28999089631971 0.0 0.0 0.0 34.31052061344573" Properties=species:S:1:pos:R:3:initial_magmoms:R:1 pbc="T T T"
Si      -1.35739683       1.35368271      -1.36205981       0.00000000
Si       1.35990549      -1.36216980      -1.35945221       0.00000000
Si       1.34838846       1.35104373       1.38518511       0.00000000
Si      -1.37889963      -1.35039213       1.38079336       0.00000000
Si       0.02616174      -2.62997163       2.76192983       0.00000000
Si      -2.70897813       2.70920619      -0.00610728       0.00000000
Si       2.71904535       2.70988491       0.00061759       0.00000000
Si       0.00128691       2.71127127      -2.71787510       0.00000000
Si      -2.71257822      -0.00299736      -2.71825251       0.00000000
Si      -2.71580364      -2.71842633      -0.00154397       0.00000000
