10
Lattice="16.28999089631971 0.0 0.0 0.0 16.28999089631971 0.0 0.0 0.0 34.31052061344573" Properties=species:S:1:pos:R:3:initial_magmoms:R:1 pbc="T T T"
Si       1.31619942      -1.37492487      -1.34354241       0.00000000
Si       1.36112724       1.35278676       1.35594224       0.00000000
Si      -1.35558864      -1.35918873       1.35549620       0.00000000
Si      -1.21864838       1.22789133      -1.60544505       0.00000000
Si      -0.44758404      -2.14734780      -2.82666494       0.00000000
Si       0.61271577       2.00591802      -2.93110622       0.00000000
Si      -2.27104917      -0.51820119      -2.78247296       0.00000000
Si       2.49083874       0.22403637      -2.66383943       0.00000000
Si      -2.69403110       2.68315848      -0.01660630       0.00000000
Si       0.00289962       2.70905958       2.71398771       0.00000000
