10
Lattice="16.28999089631971 0.0 0.0 0.0 16.28999089631971 0.0 0.0 0.0 34.31052061344573" Properties=species:S:1:pos:R:3:initial_magmoms:R:1 pbc="T T T"
Si      -1.35324288      -1.35589451      -1.36888761       0.00000000
Si       1.35668007       1.36153449      -1.37115210       0.00000000
Si      -1.45368702       1.23383718       1.43438643       0.00000000
Si       1.49638311      -1.29305785       1.35286458       0.00000000
Si       0.15226263       2.44325565       2.82228207       0.00000000
Si      -2.70355356       2.72391606       0.00308795       0.00000000
Si       2.71886616      -2.71700000      -0.01564561       0.00000000
Si      -2.72389977      -2.71473569       0.01567992       0.00000000
Si       2.71433754       2.72575683      -0.00699935       0.00000000
Si      -2.71319724       0.00219752      -2.72947206       0.00000000
