10
Lattice="16.28999089631971 0.0 0.0 0.0 16.28999089631971 0.0 0.0 0.0 34.31052061344573" Properties=species:S:1:pos:R:3:initial_magmoms:R:1 pbc="T T T"
Si      -2.28853323       0.20838168      -0.52666679       0.00000000
Si       0.55563561       2.28838662       0.12519916       0.00000000
Si       0.75116448      -1.14922692       1.92262541       0.00000000
Si       0.78003036      -1.36145304      -1.83087902       0.00000000
Si      -0.11090232       0.62674146       3.27947001       0.00000000
Si       2.68374492       2.00883393      -0.83577044       0.00000000
Si      -2.66984955      -2.11528745      -0.58660730       0.00000000
Si      -0.64915650      -3.15435392      -1.28317988       0.00000000
Si       0.31377798       0.30408543      -3.46937885       0.00000000
Si      -1.90337247       1.01718018      -2.84252529       0.00000000
