10
Lattice="16.28999089631971 0.0 0.0 0.0 16.28999089631971 0.0 0.0 0.0 34.31052061344573" Properties=species:S:1:pos:R:3:initial_magmoms:R:1 pbc="T T T"
Si      -1.35822762      -1.35557235       1.35588391       0.00000000
Si       1.35682668       1.35757602       1.35759944       0.00000000
Si       1.35866745      -1.35718506      -1.35660443       0.00000000
Si      -1.35764118       1.35788553      -1.35698185       0.00000000
Si      -2.71169856      -0.00172674       2.71012092       0.00000000
Si       2.71428258       0.00094482      -2.71231679       0.00000000
Si      -2.71484253       0.00117288      -2.71252265       0.00000000
Si       2.71491596      -2.71419093      -0.00048035       0.00000000
Si      -2.71453302      -2.71464705       0.00037742       0.00000000
Si      -2.71463076       2.71551042      -0.00003431       0.00000000
