10
Lattice="16.28999089631971 0.0 0.0 0.0 16.28999089631971 0.0 0.0 0.0 34.31052061344573" Properties=species:S:1:pos:R:3:initial_magmoms:R:1 pbc="T T T"
Si       1.08916569      -0.35709309       2.07407213       0.00000000
Si      -2.38488858      -0.05509278       0.58530350       0.00000000
Si       0.85818978       2.08059138      -1.05226994       0.00000000
Si       0.70198497      -1.94478165      -1.39606155       0.00000000
Si       3.34188928      -0.17319528       1.42423051       0.00000000
Si      -3.46255353      -0.81899604      -1.45531586       0.00000000
Si       0.79892676      -2.65313601       2.67364881       0.00000000
Si      -0.21786246       3.92882220       0.01152834       0.00000000
Si       1.65214809      -1.13044455      -3.45290979       0.00000000
Si      -3.21636276       2.17202715       1.12274379       0.00000000
