10
Lattice="16.28999089631971 0.0 0.0 0.0 16.28999089631971 0.0 0.0 0.0 34.31052061344573" Properties=species:S:1:pos:R:3:initial_magmoms:R:1 pbc="T T T"
Si       0.94434759      -1.75405833      -1.19738637       0.00000000
Si      -1.21564125       1.41020901      -1.40073122       0.00000000
Si       1.36676358       1.34159553       1.33831691       0.00000000
Si      -1.36150191      -1.36197432       1.34758076       0.00000000
Si      -2.40953535      -0.20859345      -2.66548565       0.00000000
Si       2.73712790      -0.81972909      -2.49933549       0.00000000
Si      -2.69754255       2.68946271      -0.02098776       0.00000000
Si       0.00519651       2.70037701       2.69735740       0.00000000
Si      -2.70814734      -0.01389537       2.70085707       0.00000000
Si       2.72104559      -0.01316232       2.69653394       0.00000000
