10
Lattice="16.28999089631971 0.0 0.0 0.0 16.28999089631971 0.0 0.0 0.0 34.31052061344573" Properties=species:S:1:pos:R:3:initial_magmoms:R:1 pbc="T T T"
Si      -1.35687555       1.35630540       1.35759944       0.00000000
Si       1.35795998      -1.35783666       1.35739358       0.00000000
Si       1.35794726       1.35731538      -1.35866307       0.00000000
Si      -1.35648459      -1.35803214      -1.35969238       0.00000000
Si       2.71382345       0.00029322       2.71403232       0.00000000
Si       0.00115659       2.71269225       2.71519888       0.00000000
Si      -2.71485882      -0.00110772       2.71362059       0.00000000
Si       0.00366525       2.71207323      -2.71688009       0.00000000
Si      -2.71533123       2.71451673       0.00075483       0.00000000
Si      -2.71464705      -2.71539639       0.00068621       0.00000000
