10
Lattice="16.28999089631971 0.0 0.0 0.0 16.28999089631971 0.0 0.0 0.0 34.31052061344573" Properties=species:S:1:pos:R:3:initial_magmoms:R:1 pbc="T T T"
Si       1.35149075      -1.35347094      -1.35732495       0.00000000
Si      -1.35581670      -1.36396170       1.34809542       0.00000000
Si       1.35875609       1.35760860       1.35729064       0.00000000
Si      -1.36117611       1.35892809      -1.35615840       0.00000000
Si      -0.02120958       2.66714541       2.73877022       0.00000000
Si      -2.71072116      -0.03756474       2.69903861       0.00000000
Si       2.70818711      -2.70853830       0.00243605       0.00000000
Si       2.71054916       0.00311139      -2.71386077       0.00000000
Si      -0.00437272      -2.71160082      -2.71396370       0.00000000
Si      -2.71963179      -2.70863604       0.00301933       0.00000000
