10
Lattice="16.28999089631971 0.0 0.0 0.0 16.28999089631971 0.0 0.0 0.0 34.31052061344573" Properties=species:S:1:pos:R:3:initial_magmoms:R:1 pbc="T T T"
Si      -1.32786306      -1.26550494      -1.46571195       0.00000000
Si      -0.72997119       1.38233682       1.76229226       0.00000000
Si       1.44858825       1.37121075      -1.35989824       0.00000000
Si      -0.19653885      -2.27080971       0.95877372       0.00000000
Si      -2.64211745      -2.65790898      -0.05771033       0.00000000
Si       0.79592940       1.27558845       3.51978103       0.00000000
Si       0.07522722      -2.64256380      -2.85844538       0.00000000
Si      -2.63561937       0.07843635      -2.87611531       0.00000000
Si       0.91957050       3.83676741      -0.07750751       0.00000000
Si       0.09057240       2.79505449      -2.84705428       0.00000000
