10
Lattice="16.28999089631971 0.0 0.0 0.0 16.28999089631971 0.0 0.0 0.0 34.31052061344573" Properties=species:S:1:pos:R:3:initial_magmoms:R:1 pbc="T T T"
Si       1.52590059      -0.10674837       1.75748878       0.00000000
Si       0.72997119      -1.38233682      -1.76229226       0.00000000
Si      -2.15751602       1.03581594       0.25190798       0.00000000
Si       0.07903908      -1.78989633       2.52110415       0.00000000
Si       1.64954169       2.45443059      -1.83979976       0.00000000
Si      -2.47251412       1.86106734      -1.93830532       0.00000000
Si       0.53343234      -3.65314653      -0.80351853       0.00000000
Si       2.17855944      -0.01112607      -3.12219050       0.00000000
Si       1.17242388       1.53697779       3.40086070       0.00000000
Si      -0.49611195      -3.69540279       1.26935273       0.00000000
