10
Lattice="16.28999089631971 0.0 0.0 0.0 16.28999089631971 0.0 0.0 0.0 34.31052061344573" Properties=species:S:1:pos:R:3:initial_magmoms:R:1 pbc="T T T"
Si       1.35262127       1.35848826       1.36811905       0.00000000
Si      -1.36208835      -1.35475785       1.36894250       0.00000000
Si      -1.19280267       1.54779435      -1.35125885       0.00000000
Si       1.19213871      -1.57581315      -1.43297969       0.00000000
Si      -2.47661757       0.13450653      -2.81887988       0.00000000
Si      -2.72885193      -2.69635338       0.03062559       0.00000000
Si       2.72406986       2.70317093      -0.01806793       0.00000000
Si       2.70351188      -2.72455137      -0.01335023       0.00000000
Si      -2.71435383       2.71955034       0.01230033       0.00000000
Si       2.70717713       0.00490329       2.72863488       0.00000000
