10
Lattice="16.28999089631971 0.0 0.0 0.0 16.28999089631971 0.0 0.0 0.0 34.31052061344573" Properties=species:S:1:pos:R:3:initial_magmoms:R:1 pbc="T T T"
Si       1.35951453       1.35200484       1.35272734       0.00000000
Si      -1.35830907       1.35599589      -1.36188826       0.00000000
Si       1.35832536      -1.35967743      -1.36178532       0.00000000
Si      -1.37508777      -1.35526284       1.37245590       0.00000000
Si      -2.71259451       2.71311033      -0.00051466       0.00000000
Si       2.71830386       2.71123627      -0.00212725       0.00000000
Si      -2.71145421      -2.71920825      -0.00634745       0.00000000
Si       2.69829189      -0.05146011       2.73314329       0.00000000
Si      -2.71466334      -0.00043983      -2.71938476       0.00000000
Si      -0.00008145       2.71485859      -2.71921321       0.00000000
