10
Lattice="16.28999089631971 0.0 0.0 0.0 16.28999089631971 0.0 0.0 0.0 34.31052061344573" Properties=species:S:1:pos:R:3:initial_magmoms:R:1 pbc="T T T"
Si      -1.22248305       1.42394215       1.36851019       0.00000000
Si      -1.35951453      -1.35200484      -1.35272734       0.00000000
Si       1.35878933       1.35923143      -1.35485460       0.00000000
Si       1.33877736      -1.40346495       1.38041595       0.00000000
Si      -2.47845834      -0.16164567       2.56653131       0.00000000
Si       0.54457470       2.50554602       2.61127225       0.00000000
Si      -0.00118917      -2.71168227      -2.71451267       0.00000000
Si       2.71534819       0.00547344      -2.71530181       0.00000000
Si       2.71874303      -2.71300176      -0.00106363       0.00000000
Si      -2.71782360       0.00399105      -2.71461560       0.00000000
