10
Lattice="16.28999089631971 0.0 0.0 0.0 16.28999089631971 0.0 0.0 0.0 34.31052061344573" Properties=species:S:1:pos:R:3:initial_magmoms:R:1 pbc="T T T"
Si       0.70341849      -1.31667183      -1.81856154       0.00000000
Si      -0.33790347      -1.59184251       1.71291939       0.00000000
Si      -2.31010119       0.31255185      -0.64500384       0.00000000
Si       1.25033895       2.03930342      -0.40939336       0.00000000
Si      -1.45661922       0.19477953       2.97455225       0.00000000
Si      -2.80570815       1.43812422       1.47233388       0.00000000
Si      -2.87709093      -1.98599535      -0.91935091       0.00000000
Si      -0.14998203       0.03417642      -3.61519865       0.00000000
Si      -0.95545737      -2.96769591      -1.98877613       0.00000000
Si       2.86588341      -2.08779156      -1.21696054       0.00000000
