10
Lattice="16.28999089631971 0.0 0.0 0.0 16.28999089631971 0.0 0.0 0.0 34.31052061344573" Properties=species:S:1:pos:R:3:initial_magmoms:R:1 pbc="T T T"
Si      -0.83156445      -0.00364896      -2.15676053       0.00000000
Si      -0.93282309       1.93828194       0.97661520       0.00000000
Si       0.38472256      -1.38531789       1.89538284       0.00000000
Si       2.35044989       0.00224802      -0.58828852       0.00000000
Si       2.92560092       1.90775448       0.66346291       0.00000000
Si       1.08866396       3.01856958       1.71868356       0.00000000
Si      -1.42645896       3.18886524      -1.26489236       0.00000000
Si       0.17398697       0.14788062       3.71099367       0.00000000
Si      -1.88298621       1.12394484       3.03346344       0.00000000
Si       0.93441558      -0.34259499      -3.67764383       0.00000000
