10
Lattice="16.28999089631971 0.0 0.0 0.0 16.28999089631971 0.0 0.0 0.0 34.31052061344573" Properties=species:S:1:pos:R:3:initial_magmoms:R:1 pbc="T T T"
Si       0.29721105       2.29602663       0.30728519       0.00000000
Si       1.80180432      -0.56159775      -1.37773973       0.00000000
Si      -1.92636743      -0.48910725      -1.23157683       0.00000000
Si      -0.01972719      -1.21166649       2.01104367       0.00000000
Si      -1.22744661       2.98421397      -1.32352907       0.00000000
Si      -1.96501383      -2.80436911      -1.19719766       0.00000000
Si      -2.28628472      -1.49195223       2.51691827       0.00000000
Si       3.13611822       1.35664749      -1.45562465       0.00000000
Si      -3.77040914       0.50427324      -0.07411077       0.00000000
Si       1.23634584      -0.12367368       3.66439996       0.00000000
