10
Lattice="16.28999089631971 0.0 0.0 0.0 16.28999089631971 0.0 0.0 0.0 34.31052061344573" Properties=species:S:1:pos:R:3:initial_magmoms:R:1 pbc="T T T"
Si      -1.35596983      -1.35671839       1.35698185       0.00000000
Si       1.35742941      -1.35782611      -1.35708478       0.00000000
Si      -1.35862998       1.35816227      -1.35677599       0.00000000
Si       1.35754344       1.35843920       1.35763375       0.00000000
Si       0.00016290       2.71274256       2.71197369       0.00000000
Si       2.71360449       0.00025734      -2.71458129       0.00000000
Si       2.71494027      -2.71396861       0.00017155       0.00000000
Si       0.00024435      -2.71479940       2.71461560       0.00000000
Si      -0.00073305      -2.71483198      -2.71461560       0.00000000
Si       2.71482624       2.71490913      -0.00024017       0.00000000
