10
Lattice="16.28999089631971 0.0 0.0 0.0 16.28999089631971 0.0 0.0 0.0 34.31052061344573" Properties=species:S:1:pos:R:3:initial_magmoms:R:1 pbc="T T T"
Si      -1.35428201       1.35475785      -1.35821703       0.00000000
Si      -1.35794726      -1.35731538       1.35866307       0.00000000
Si       1.35795479       1.35723393       1.35904048       0.00000000
Si       1.36272450      -1.35741312      -1.36030997       0.00000000
Si      -2.72104559       0.01316232      -2.69653394       0.00000000
Si      -2.71584908       2.71353933       0.00082345       0.00000000
Si       2.71498347       2.71441899       0.00147535       0.00000000
Si      -2.71443185      -2.71534752      -0.00102932       0.00000000
Si       0.00049670       2.71467963       2.71639975       0.00000000
Si      -2.71482281      -0.00100998       2.71626250       0.00000000
