10
Lattice="16.28999089631971 0.0 0.0 0.0 16.28999089631971 0.0 0.0 0.0 34.31052061344573" Properties=species:S:1:pos:R:3:initial_magmoms:R:1 pbc="T T T"
Si      -1.35669636       1.35506736      -1.35976100       0.00000000
Si       1.35927018      -1.36288656      -1.35667305       0.00000000
Si      -1.36051962      -1.35979146       1.36576535       0.00000000
Si       1.36567215       1.35682668       1.39482637       0.00000000
Si      -2.70818711       2.70853830      -0.00243605       0.00000000
Si       2.71485882       2.71194291       0.00051466       0.00000000
Si       0.00236205       2.71164969      -2.71629681       0.00000000
Si      -2.71255983      -0.00306252      -2.71639975       0.00000000
Si      -2.71426328      -2.71769328       0.00120087       0.00000000
Si       2.71772586      -0.00306252      -2.71605664       0.00000000
