10
Lattice="16.28999089631971 0.0 0.0 0.0 16.28999089631971 0.0 0.0 0.0 34.31052061344573" Properties=species:S:1:pos:R:3:initial_magmoms:R:1 pbc="T T T"
Si      -0.31499810       0.82525140      -2.19021331       0.00000000
Si       2.15751602      -1.03581594      -0.25190798       0.00000000
Si       0.21007584       1.93148901       1.56613890       0.00000000
Si      -2.11550478      -1.54460151       0.34084090       0.00000000
Si       0.99028865       0.59626287       3.32050542       0.00000000
Si      -3.60788055       0.34971372       0.59144508       0.00000000
Si       0.39961813      -1.71489717       3.32441682       0.00000000
Si      -1.17902526      -1.01300994      -3.47620665       0.00000000
Si      -1.98254580       2.70298341       2.02034182       0.00000000
Si      -2.05265796       2.56678272      -2.25979508       0.00000000
