10
Lattice="16.28999089631971 0.0 0.0 0.0 16.28999089631971 0.0 0.0 0.0 34.31052061344573" Properties=species:S:1:pos:R:3:initial_magmoms:R:1 pbc="T T T"
Si       0.47555886      -1.28936979      -1.82665883       0.00000000
Si      -2.10898715       0.07791507       0.90943517       0.00000000
Si       0.52887603       2.22695703      -0.51555017       0.00000000
Si       1.04114766      -0.86293017       1.94674572       0.00000000
Si       3.08717166       0.22108788       1.38693495       0.00000000
Si       0.41403153       2.92451112       1.68986271       0.00000000
Si      -1.39959023       1.66428414       2.64297519       0.00000000
Si      -2.51996756      -2.27129841       1.23627737       0.00000000
Si       2.81881020      -1.50752547      -1.74554871       0.00000000
Si      -0.45758447      -0.25177824      -3.69802429       0.00000000
