10
Lattice="16.28999089631971 0.0 0.0 0.0 16.28999089631971 0.0 0.0 0.0 34.31052061344573" Properties=species:S:1:pos:R:3:initial_magmoms:R:1 pbc="T T T"
Si      -1.10110367       1.71628182      -1.13756595       0.00000000
Si       1.33963421      -0.81093249      -1.83379542       0.00000000
Si      -1.86849299      -1.18177434       0.96714550       0.00000000
Si       1.24241549       0.93141333       2.15109929       0.00000000
Si      -1.14829580       0.34303482       2.66771309       0.00000000
Si      -1.81050059       0.12991275      -2.87110597       0.00000000
Si      -0.52442234      -3.17487213       1.40831042       0.00000000
Si       0.71251808       2.97650880      -2.09067843       0.00000000
Si       1.26939173      -3.17094624      -1.47295147       0.00000000
Si       0.29848656       0.05199768      -3.78054114       0.00000000
