10
Lattice="16.28999089631971 0.0 0.0 0.0 16.28999089631971 0.0 0.0 0.0 34.31052061344573" Properties=species:S:1:pos:R:3:initial_magmoms:R:1 pbc="T T T"
Si      -1.04114766       0.86293017      -1.94674572       0.00000000
Si       2.04602400       1.08401805      -0.55981077       0.00000000
Si      -0.07024248      -2.36001375       0.36084395       0.00000000
Si      -1.33963421       0.81093249       1.83379542       0.00000000
Si      -3.15013481       0.94084524      -1.03731055       0.00000000
Si      -2.44073789       2.52721431       0.69622947       0.00000000
Si       3.56817789      -0.10702530       0.72072720       0.00000000
Si       0.25612767      -3.26953332      -1.74589182       0.00000000
Si       1.71334962       3.30915060       0.11916050       0.00000000
Si      -2.29982301      -2.85835743       0.86016523       0.00000000
