10
Lattice="16.28999089631971 0.0 0.0 0.0 16.28999089631971 0.0 0.0 0.0 34.31052061344573" Properties=species:S:1:pos:R:3:initial_magmoms:R:1 pbc="T T T"
Si      -0.75949586      -1.88351496       1.13399765       0.00000000
Si      -1.07346932       0.13129740      -2.07053814       0.00000000
Si       2.28117015      -0.54043704      -0.40671714       0.00000000
Si      -0.67656347       1.80814669       1.40422746       0.00000000
Si       2.43766818       0.86190001       2.37229934       0.00000000
Si       0.76658296       0.92147808      -3.29954168       0.00000000
Si       2.71161711      -1.44231660       1.73762298       0.00000000
Si      -2.79577844       2.32891192       0.53706288       0.00000000
Si      -2.78779634       1.79718515      -1.78181495       0.00000000
Si       2.90709711       1.31707486      -2.04137419       0.00000000
