10
Lattice="10.86 0.0 0.0 0.0 10.86 0.0 0.0 0.0 10.86" Properties=species:S:1:pos:R:3:initial_magmoms:R:1 pbc="T T T"
Si      -1.13039568       1.23542274      -1.27307436       0.00000000
Si      -1.13039568      -1.47957726       1.44192564       0.00000000
Si       1.74684186       1.01539914       1.22265138       0.00000000
Si       1.58460432      -1.47957726      -1.27307436       0.00000000
Si       1.33506324       3.12821214      -0.36755670       0.00000000
Si       0.23136144       2.43622380       2.58157404       0.00000000
Si      -2.48789568       2.59292274       0.08442564       0.00000000
Si      -2.48789568      -0.12207726      -2.63057436       0.00000000
Si      -2.48789568      -0.12207726       2.79942564       0.00000000
Si       0.48801582       2.83618674      -2.42357190       0.00000000
