10
Lattice="10.86 0.0 0.0 0.0 10.86 0.0 0.0 0.0 10.86" Properties=species:S:1:pos:R:3:initial_magmoms:R:1 pbc="T T T"
Si      -0.84704742      -0.29202540      -2.05601520       0.00000000
Si      -1.22481252       2.12188110       0.43267326       0.00000000
Si       0.41177862      -2.11281300       1.59020808       0.00000000
Si       1.35941136       2.06004426      -1.88328690       0.00000000
Si      -2.46545892       0.82221060       1.80948234       0.00000000
Si      -1.10370180      -0.69198834       2.94913074       0.00000000
Si      -2.46545892      -1.89278940      -0.90551766       0.00000000
Si      -1.33506324      -3.12821214       0.36755670       0.00000000
Si      -3.82295892      -0.53528940       0.45198234       0.00000000
Si       0.24954108       3.53721060       1.80948234       0.00000000
