10
Lattice="10.86 0.0 0.0 0.0 10.86 0.0 0.0 0.0 10.86" Properties=species:S:1:pos:R:3:initial_magmoms:R:1 pbc="T T T"
Si      -1.36175712       1.51419894      -1.13964840       0.00000000
Si      -1.36175712      -1.20080106       1.57535160       0.00000000
Si       1.51548042      -1.42082466      -1.35892266       0.00000000
Si       1.35324288       1.51419894       1.57535160       0.00000000
Si       1.10370180       0.69198834      -2.94913074       0.00000000
Si      -0.23136144      -2.43622380      -2.58157404       0.00000000
Si      -2.71925712       0.15669894      -2.49714840       0.00000000
Si      -2.71925712      -2.55830106       0.21785160       0.00000000
Si       2.68856676      -2.59161954       0.42443052       0.00000000
Si      -0.12111072       2.81386944      -2.51645748       0.00000000
