10
Lattice="10.86 0.0 0.0 0.0 10.86 0.0 0.0 0.0 10.86" Properties=species:S:1:pos:R:3:initial_magmoms:R:1 pbc="T T T"
Si      -1.37688510      -1.27598484      -1.43233626       0.00000000
Si      -1.37688510       1.43901516       1.28266374       0.00000000
Si       1.33811490       1.43901516      -1.43233626       0.00000000
Si       2.64433398       0.10806786       2.58015138       0.00000000
Si       2.60719278      -2.62226646      -0.05326830       0.00000000
Si      -2.73438510      -2.63348484      -0.07483626       0.00000000
Si      -2.73438510       0.08151516       2.64016374       0.00000000
Si      -0.01938510      -2.63348484      -2.78983626       0.00000000
Si      -0.01938510       2.79651516       2.64016374       0.00000000
Si       2.69561490       0.08151516      -2.78983626       0.00000000
