10
Lattice="10.86 0.0 0.0 0.0 10.86 0.0 0.0 0.0 10.86" Properties=species:S:1:pos:R:3:initial_magmoms:R:1 pbc="T T T"
Si       1.40878092       1.33094730      -1.29748764       0.00000000
Si      -1.30621908       1.33094730       1.41751236       0.00000000
Si       1.40878092      -1.38405270       1.41751236       0.00000000
Si      -2.64433398      -0.10806786      -2.58015138       0.00000000
Si       0.05128092       2.68844730      -2.65498764       0.00000000
Si      -2.66371908       2.68844730       0.06001236       0.00000000
Si      -0.03714120      -2.73033432      -2.63341968       0.00000000
Si       2.76628092      -0.02655270      -2.65498764       0.00000000
Si      -2.66371908      -0.02655270       2.77501236       0.00000000
Si       2.76628092       2.68844730       0.06001236       0.00000000
