10
Lattice="16.28999089631971 0.0 0.0 0.0 16.28999089631971 0.0 0.0 0.0 34.474598006748145" Properties=species:S:1:pos:R:3:initial_magmoms:R:1 pbc="T T T"
Si       1.65765411       0.11662011      -1.59255494       0.00000000
Si      -0.15170877       1.85015304       1.43021397       0.00000000
Si      -1.64913444      -1.46106313      -0.91443922       0.00000000
Si       2.29346910      -0.37089072       0.93960569       0.00000000
Si       2.10452139       1.65731202       2.11032922       0.00000000
Si      -1.79297514      -0.26409348      -2.97888273       0.00000000
Si       1.90234620      -2.47565157       2.07361375       0.00000000
Si      -0.22151142       3.76862634       0.03344038       0.00000000
Si       0.52079130      -0.67896720      -3.70877933       0.00000000
Si       1.98324234      -2.15114989      -2.51261353       0.00000000
