10
Lattice="16.28999089631971 0.0 0.0 0.0 16.28999089631971 0.0 0.0 0.0 34.474598006748145" Properties=species:S:1:pos:R:3:initial_magmoms:R:1 pbc="T T T"
Si      -1.37135736      -1.33613838       1.34699225       0.00000000
Si      -1.35136953       1.35542574      -1.35643829       0.00000000
Si       1.36088289      -1.35917244      -1.35623144       0.00000000
Si       1.35773892       1.38320019       1.36595329       0.00000000
Si       0.05535342      -2.50289334       2.74007706       0.00000000
Si      -2.71065600      -0.00218286      -2.71346265       0.00000000
Si      -2.71068858       2.71345788       0.00699835       0.00000000
Si       0.00410508       2.71308321      -2.71322133       0.00000000
Si      -2.71184517      -2.71648782       0.00313719       0.00000000
Si       2.71590138       2.71244790       0.00265455       0.00000000
