10
Lattice="16.28999089631971 0.0 0.0 0.0 16.28999089631971 0.0 0.0 0.0 34.474598006748145" Properties=species:S:1:pos:R:3:initial_magmoms:R:1 pbc="T T T"
Si       1.31921307      -1.29893202       1.50374144       0.00000000
Si       1.12252761       1.60537950      -1.39061095       0.00000000
Si      -1.39714443       1.40690214       1.47853015       0.00000000
Si      -1.05982740      -1.52451594      -1.66992430       0.00000000
Si      -2.65613174      -2.54052324      -0.04578919       0.00000000
Si      -0.39488589       1.64869461      -3.32642966       0.00000000
Si       2.77480602      -2.52838719       0.10385823       0.00000000
Si       2.64106512       2.78557371       0.10447878       0.00000000
Si      -0.03938922      -2.65782753       2.86974299       0.00000000
Si       2.67766875       0.05820417       2.86981194       0.00000000
