10
Lattice="16.28999089631971 0.0 0.0 0.0 16.28999089631971 0.0 0.0 0.0 34.474598006748145" Properties=species:S:1:pos:R:3:initial_magmoms:R:1 pbc="T T T"
Si       1.33757190       1.47756816      -1.27993912       0.00000000
Si      -1.29741705      -1.37158542      -1.43300642       0.00000000
Si       1.14543135      -1.30137552       1.64664562       0.00000000
Si      -1.83251097       1.20907638       1.07040239       0.00000000
Si      -0.73215405      -1.01659374       3.22461780       0.00000000
Si       2.61840573      -2.68345170      -0.17761323       0.00000000
Si       1.59358554       3.39819174       0.44772185       0.00000000
Si      -2.74708044      -1.79756892       1.92189096       0.00000000
Si      -2.34313731      -3.07490040      -0.19526423       0.00000000
Si      -0.05494617       2.55394620      -2.93878875       0.00000000
