10
Lattice="16.28999089631971 0.0 0.0 0.0 16.28999089631971 0.0 0.0 0.0 34.474598006748145" Properties=species:S:1:pos:R:3:initial_magmoms:R:1 pbc="T T T"
Si      -2.15098861      -0.75168576       0.53670084       0.00000000
Si       1.09688715      -2.03401501      -0.40886896       0.00000000
Si      -0.22607262       0.91424367      -2.18558731       0.00000000
Si       0.84685194       1.70753409       1.65454031       0.00000000
Si       0.83390139       2.96245053      -1.82156983       0.00000000
Si      -3.30506900       1.31139387       0.58544795       0.00000000
Si       0.32604435       3.59662023       0.37601465       0.00000000
Si      -2.05710283      -1.36241415       2.83412381       0.00000000
Si       2.08787301      -2.72294518       1.61092992       0.00000000
Si      -0.60424497      -3.45026177      -1.52653605       0.00000000
