10
Lattice="16.28999089631971 0.0 0.0 0.0 16.28999089631971 0.0 0.0 0.0 34.474598006748145" Properties=species:S:1:pos:R:3:initial_magmoms:R:1 pbc="T T T"
Si       1.94776272      -0.42847587      -1.32396320       0.00000000
Si      -1.12252761      -1.60537950       1.39061095       0.00000000
Si       1.51853751       1.18019421       1.49508973       0.00000000
Si      -1.51741350       0.04331511      -1.93581871       0.00000000
Si       0.50283972      -0.38410191      -3.21455121       0.00000000
Si       2.78831043      -2.60770320      -0.05002267       0.00000000
Si      -2.51967204      -0.19847736       2.86914110       0.00000000
Si      -2.18235501      -3.12989544      -0.27931335       0.00000000
Si       0.19060929       2.51748918       2.89772745       0.00000000
Si       2.98108629       1.73587869      -1.79378329       0.00000000
