10
Lattice="16.28999089631971 0.0 0.0 0.0 16.28999089631971 0.0 0.0 0.0 34.474598006748145" Properties=species:S:1:pos:R:3:initial_magmoms:R:1 pbc="T T T"
Si      -1.24146090      -1.17744120      -1.56969827       0.00000000
Si       1.30551318       1.52619381      -1.31017335       0.00000000
Si       1.74348612      -1.70165340       0.52173886       0.00000000
Si      -2.02947336       0.80656677       1.57421445       0.00000000
Si      -2.74504419      -2.33844579      -0.27855491       0.00000000
Si       1.47587400      -1.91137086       2.85442936       0.00000000
Si       0.09495441      -2.54589894      -2.86477175       0.00000000
Si      -0.86006313      -2.41207659       2.86153113       0.00000000
Si       2.55954996       2.87163934       0.35350273       0.00000000
Si      -2.64065787       0.19694610      -2.85639441       0.00000000
