10
Lattice="16.28999089631971 0.0 0.0 0.0 16.28999089631971 0.0 0.0 0.0 34.474598006748145" Properties=species:S:1:pos:R:3:initial_magmoms:R:1 pbc="T T T"
Si      -0.79504974      -1.68989202      -1.39043026       0.00000000
Si       0.05929560      -1.34210052       1.93899037       0.00000000
Si      -2.22887925       0.88295125       0.06898371       0.00000000
Si       2.32156935       0.73407205      -0.24287368       0.00000000
Si       1.24375779      -3.13320231       0.86307204       0.00000000
Si       2.81849580       0.62957822       2.13397881       0.00000000
Si      -0.77799411      -0.60284403      -3.49224426       0.00000000
Si      -2.55335976      -2.68330509      -0.09370201       0.00000000
Si       0.86754024      -3.30124995      -1.44745128       0.00000000
Si      -2.10750246       2.60300258       1.64378423       0.00000000
