10
Lattice="16.28999089631971 0.0 0.0 0.0 16.28999089631971 0.0 0.0 0.0 34.474598006748145" Properties=species:S:1:pos:R:3:initial_magmoms:R:1 pbc="T T T"
Si      -1.66258998       1.61135793       0.05702102       0.00000000
Si       0.37621755       0.16804764       2.31052332       0.00000000
Si      -0.37867734      -2.03677128      -1.11373699       0.00000000
Si       1.72467117       1.03498515      -1.23860405       0.00000000
Si       2.07410796      -2.41241868      -0.16799481       0.00000000
Si       1.10762226      -1.65418434      -3.00825510       0.00000000
Si       0.48350349       2.19284577      -2.91234672       0.00000000
Si      -0.86754024       3.30124995       1.44745128       0.00000000
Si      -3.42090000       0.61794486       1.35374927       0.00000000
Si      -1.64553435       2.69840592      -2.04479297       0.00000000
