10
Lattice="16.28999089631971 0.0 0.0 0.0 16.28999089631971 0.0 0.0 0.0 34.474598006748145" Properties=species:S:1:pos:R:3:initial_magmoms:R:1 pbc="T T T"
Si      -1.35158130       1.35655627       1.36033392       0.00000000
Si       1.36225125      -1.35789225       1.35919626       0.00000000
Si      -1.35956340      -1.33765612      -1.38302512       0.00000000
Si       1.36115982       1.35038236      -1.37685416       0.00000000
Si      -2.70966231       2.71315489      -0.00162031       0.00000000
Si      -2.71103067      -0.00175118       2.71656537       0.00000000
Si      -2.71147050      -2.71757992      -0.00393011       0.00000000
Si       0.00410508       2.71356214       2.71708249       0.00000000
Si       0.00369783      -2.71671655       2.71673774       0.00000000
Si       2.71880100      -0.00153615       2.71684116       0.00000000
