10
Lattice="16.28999089631971 0.0 0.0 0.0 16.28999089631971 0.0 0.0 0.0 34.474598006748145" Properties=species:S:1:pos:R:3:initial_magmoms:R:1 pbc="T T T"
Si       1.35861858       1.35659278       1.35602460       0.00000000
Si       1.35659862      -1.35805331      -1.35695541       0.00000000
Si      -1.35812988       1.35691206      -1.35712778       0.00000000
Si      -1.35751086      -1.35640802       1.35909284       0.00000000
Si       2.70606222       0.00773287       2.71542770       0.00000000
Si       2.71334385       2.71429098       0.00065502       0.00000000
Si       0.00131949       2.71521951      -2.71335923       0.00000000
Si       2.71515204       0.00077099      -2.71449689       0.00000000
Si       2.71420722      -2.71546643       0.00041370       0.00000000
Si      -0.00089595      -2.71668818      -2.71363502       0.00000000
