10
Lattice="16.28999089631971 0.0 0.0 0.0 16.28999089631971 0.0 0.0 0.0 34.474598006748145" Properties=species:S:1:pos:R:3:initial_magmoms:R:1 pbc="T T T"
Si      -1.35472527      -1.35769819       1.35536958       0.00000000
Si       1.35695700       1.35664749       1.35757595       0.00000000
Si      -1.35633798       1.35793440      -1.35726568       0.00000000
Si       1.35835794      -1.35716388      -1.35750700       0.00000000
Si      -0.00728163      -2.70655811       2.71477269       0.00000000
Si      -2.71202436       0.00092853      -2.71401424       0.00000000
Si      -2.71334385      -2.71429098      -0.00065502       0.00000000
Si       0.00180819      -2.71351999      -2.71515191       0.00000000
Si      -2.71402803       2.71521720      -0.00013790       0.00000000
Si      -2.71251306       0.00003258       2.71708249       0.00000000
