10
Lattice="16.28999089631971 0.0 0.0 0.0 16.28999089631971 0.0 0.0 0.0 34.474598006748145" Properties=species:S:1:pos:R:3:initial_magmoms:R:1 pbc="T T T"
Si       1.35778779      -1.35773078      -1.36171291       0.00000000
Si      -1.35967743       1.35790182      -1.36002365       0.00000000
Si       1.35355239       1.34868168       1.38781019       0.00000000
Si      -1.36288656      -1.35312559       1.38050157       0.00000000
Si      -2.66520690       0.21418092       2.73628485       0.00000000
Si       2.70523143      -2.70659069      -0.00230980       0.00000000
Si       2.71251306      -0.00003258      -2.71708249       0.00000000
Si       2.71479366       2.71614573      -0.00179268       0.00000000
Si      -0.00083079      -2.71432356      -2.71773750       0.00000000
Si      -0.00151497       2.71518462      -2.71722038       0.00000000
