10
Lattice="16.28999089631971 0.0 0.0 0.0 16.28999089631971 0.0 0.0 0.0 34.474598006748145" Properties=species:S:1:pos:R:3:initial_magmoms:R:1 pbc="T T T"
Si      -0.75408039       0.93152736       2.01828199       0.00000000
Si       0.42140601      -2.28912686       0.54318207       0.00000000
Si      -2.06280433       0.18551052      -1.20468103       0.00000000
Si       2.20354830       0.54503082      -0.85307440       0.00000000
Si       2.08217151      -1.17502051      -2.42787492       0.00000000
Si       0.64832571       2.83516047       1.78051056       0.00000000
Si       0.55486998      -2.90311325      -1.70246002       0.00000000
Si      -0.34720506      -0.82814125       3.53599254       0.00000000
Si      -3.28610744      -1.76466898      -0.56100545       0.00000000
Si      -1.11436632      -2.77548110       2.36440715       0.00000000
