10
Lattice="16.28999089631971 0.0 0.0 0.0 16.28999089631971 0.0 0.0 0.0 34.474598006748145" Properties=species:S:1:pos:R:3:initial_magmoms:R:1 pbc="T T T"
Si      -0.18894771       2.02820274       1.17072353       0.00000000
Si       2.14233048      -0.25969518      -0.95377476       0.00000000
Si      -0.39112290      -2.10476085       1.13400806       0.00000000
Si      -2.29346910       0.37089072      -0.93960569       0.00000000
Si      -0.63581499       0.48751083      -2.53216064       0.00000000
Si      -2.44517787       2.22104376       0.49060828       0.00000000
Si       1.65983697      -2.20561876      -2.17117692       0.00000000
Si       0.11142360       1.37373570       3.36803221       0.00000000
Si       1.10128545      -3.48442190      -0.20515845       0.00000000
Si       3.75601788      -0.62991801       0.79243355       0.00000000
