10
Lattice="16.28999089631971 0.0 0.0 0.0 16.28999089631971 0.0 0.0 0.0 34.474598006748145" Properties=species:S:1:pos:R:3:initial_magmoms:R:1 pbc="T T T"
Si      -0.27870561       2.10625465      -1.01569117       0.00000000
Si       1.91283696      -0.44952076      -1.37560618       0.00000000
Si      -2.01906405      -1.14478042      -0.65177711       0.00000000
Si       0.35469846       0.79065470       2.31955567       0.00000000
Si      -1.90325844       1.82289010       2.43049499       0.00000000
Si      -1.30781007      -1.85605069      -2.80654412       0.00000000
Si       2.05480431      -2.75687140      -1.50016297       0.00000000
Si      -1.42482114       1.77328705      -3.12450351       0.00000000
Si      -1.37867157       3.68107411       0.34922787       0.00000000
Si       1.91671398       3.13294819      -1.48313251       0.00000000
