10
Lattice="16.28999089631971 0.0 0.0 0.0 16.28999089631971 0.0 0.0 0.0 34.474598006748145" Properties=species:S:1:pos:R:3:initial_magmoms:R:1 pbc="T T T"
Si       1.35711990       1.35663120       1.35602460       0.00000000
Si      -1.35721764       1.35707103      -1.35723121       0.00000000
Si       1.35769005      -1.35728280      -1.35712778       0.00000000
Si      -1.35816246      -1.35728280       1.35719673       0.00000000
Si       0.00200367      -2.71428867      -2.71387635       0.00000000
Si      -0.00009774       2.71402803      -2.71487611       0.00000000
Si       2.71402803      -2.71521720       0.00013790       0.00000000
Si       2.71484253       2.71450044       0.00010342       0.00000000
Si       2.71520091       0.00040725      -2.71470374       0.00000000
Si      -2.71494027       2.71497285       0.00020685       0.00000000
