10
Lattice="16.28999089631971 0.0 0.0 0.0 16.28999089631971 0.0 0.0 0.0 34.474598006748145" Properties=species:S:1:pos:R:3:initial_magmoms:R:1 pbc="T T T"
Si      -1.35777150       1.35449721      -1.35847229       0.00000000
Si       1.35749457       1.35659862       1.35698989       0.00000000
Si       1.35870003      -1.35426915      -1.35819650       0.00000000
Si      -1.35751086      -1.35769005       1.35757595       0.00000000
Si       2.68824096       0.00628794      -2.72379814       0.00000000
Si      -2.71319724      -2.71469592       0.00082739       0.00000000
Si      -0.00035838       2.71409319       2.71480716       0.00000000
Si      -2.71529865       2.71362078      -0.00017237       0.00000000
Si       2.71474479      -0.00016290       2.71504848       0.00000000
Si      -2.71520091      -0.00040725       2.71470374       0.00000000
