10
Lattice="16.28999089631971 0.0 0.0 0.0 16.28999089631971 0.0 0.0 0.0 34.474598006748145" Properties=species:S:1:pos:R:3:initial_magmoms:R:1 pbc="T T T"
Si       1.28910915       1.49760486      -1.33735801       0.00000000
Si       1.31856147      -1.39558059       1.43197907       0.00000000
Si      -1.53407817      -1.08805797      -1.48515069       0.00000000
Si      -1.40331834       1.32483312       1.44805114       0.00000000
Si      -2.67011019      -2.61412146       0.05934116       0.00000000
Si      -2.37462588       1.09116936      -2.75909123       0.00000000
Si       2.66287743      -0.02712285       2.82367455       0.00000000
Si      -2.80385109       2.69983944       0.05996170       0.00000000
Si       2.57569335      -2.91558420      -0.18897951       0.00000000
Si      -0.05405022       2.68969077       2.82515696       0.00000000
