10
Lattice="16.28999089631971 0.0 0.0 0.0 16.28999089631971 0.0 0.0 0.0 34.474598006748145" Properties=species:S:1:pos:R:3:initial_magmoms:R:1 pbc="T T T"
Si       1.35659862       1.35650088      -1.35743806       0.00000000
Si      -1.35708732       1.35697329       1.35826545       0.00000000
Si      -1.35713619      -1.35858600      -1.35754148       0.00000000
Si       1.35780408      -1.35811359       1.35743806       0.00000000
Si      -2.71339272      -0.00057015       2.71418662       0.00000000
Si      -2.71456560       2.71466334      -0.00027580       0.00000000
Si       0.00008145      -2.71598283       2.71335923       0.00000000
Si      -2.71425609      -2.71554300       0.00010342       0.00000000
Si       2.71564074       2.71476108      -0.00013790       0.00000000
Si       0.00232947       2.71668330       2.71404872       0.00000000
