10
Lattice="16.28999089631971 0.0 0.0 0.0 16.28999089631971 0.0 0.0 0.0 34.474598006748145" Properties=species:S:1:pos:R:3:initial_magmoms:R:1 pbc="T T T"
Si      -1.35630540      -1.35754344       1.35592117       0.00000000
Si       1.35708732      -1.35697329      -1.35826545       0.00000000
Si      -1.35747828       1.35769005      -1.35854124       0.00000000
Si       1.35941679       1.35971001       1.35578327       0.00000000
Si       0.00226431       2.71067229       2.71680669       0.00000000
Si       2.70857088      -0.00024435       2.71911649       0.00000000
Si      -2.71309950      -0.00182448       2.71570350       0.00000000
Si      -0.00016290       2.71420722      -2.71508296       0.00000000
Si       2.71368594      -0.00047241      -2.71570350       0.00000000
Si      -2.71489140      -2.71461447      -0.00072397       0.00000000
