10
Lattice="16.28999089631971 0.0 0.0 0.0 16.28999089631971 0.0 0.0 0.0 34.474598006748145" Properties=species:S:1:pos:R:3:initial_magmoms:R:1 pbc="T T T"
Si       0.97300170       1.80085950      -1.08460593       0.00000000
Si      -2.32784100       0.28227312       0.15975538       0.00000000
Si       0.55022733      -0.07920198       2.31110939       0.00000000
Si       1.42345278      -1.74267162      -0.84993721       0.00000000
Si       3.16884483      -0.74007099       0.31851099       0.00000000
Si       0.56317788       0.65073663      -3.17862866       0.00000000
Si      -1.73133378      -2.80288998      -1.15448598       0.00000000
Si       3.19482738       1.61060859      -0.20915750       0.00000000
Si       0.86283243       2.20680630       2.83629571       0.00000000
Si      -2.61228069      -1.65740976       2.13646098       0.00000000
