10
Lattice="16.28999089631971 0.0 0.0 0.0 16.28999089631971 0.0 0.0 0.0 34.474598006748145" Properties=species:S:1:pos:R:3:initial_magmoms:R:1 pbc="T T T"
Si       1.46525292      -1.28169720      -1.30203390       0.00000000
Si       1.36282140       1.33542162       1.37632670       0.00000000
Si      -1.35121640      -1.37899737       1.37322398       0.00000000
Si      -1.25392112       1.45272591      -1.53920547       0.00000000
Si      -0.02580336      -2.40715701      -2.70717245       0.00000000
Si      -2.69360756       2.69423568      -0.00028614       0.00000000
Si       2.72142369       2.69431713       0.01032515       0.00000000
Si       0.00806355       2.69381214       2.73586770       0.00000000
Si      -2.70746308      -0.02244762       2.73614350       0.00000000
Si      -2.70498539      -2.74242150       0.00178923       0.00000000
