10
Lattice="16.28999089631971 0.0 0.0 0.0 16.28999089631971 0.0 0.0 0.0 34.474598006748145" Properties=species:S:1:pos:R:3:initial_magmoms:R:1 pbc="T T T"
Si       0.44072595      -2.28991788      -0.18571476       0.00000000
Si       0.83347785       0.05194881       2.19186169       0.00000000
Si      -2.25139203       0.44812161      -0.59530769       0.00000000
Si       0.77421483       2.63120967      -1.02772282       0.00000000
Si      -1.54298880       2.63192643      -1.15907111       0.00000000
Si       3.10591656      -0.65583540       1.24760192       0.00000000
Si      -0.26720487      -2.49859278      -2.38636748       0.00000000
Si       1.49952708       1.28503665      -2.86666785       0.00000000
Si       2.18108439       2.77884594       0.91064702       0.00000000
Si       2.80292256      -2.38260798      -0.34736624       0.00000000
