10
Lattice="16.28999089631971 0.0 0.0 0.0 16.28999089631971 0.0 0.0 0.0 34.474598006748145" Properties=species:S:1:pos:R:3:initial_magmoms:R:1 pbc="T T T"
Si       1.36521603       1.34723187       1.38343881       0.00000000
Si      -1.35112518      -1.36177884       1.38323196       0.00000000
Si       1.44376641      -1.22354190      -1.45331197       0.00000000
Si      -1.31277852       1.49776776      -1.49322668       0.00000000
Si       2.28174030       0.74789019      -2.75556447       0.00000000
Si      -0.00796581      -2.55386475      -2.77928301       0.00000000
Si      -2.70039330      -2.72663649       0.00612614       0.00000000
Si       0.42466401       2.49127857      -2.89011890       0.00000000
Si      -2.71235016       2.72915934       0.00041370       0.00000000
Si       2.72147256      -2.72326446      -0.00406456       0.00000000
