10
Lattice="16.28999089631971 0.0 0.0 0.0 16.28999089631971 0.0 0.0 0.0 34.474598006748145" Properties=species:S:1:pos:R:3:initial_magmoms:R:1 pbc="T T T"
Si       1.35552348       1.35571896      -1.35681751       0.00000000
Si      -1.35715248       1.35096228       1.36102342       0.00000000
Si       1.34915409      -1.35995436       1.36333321       0.00000000
Si      -1.35941679      -1.35971001      -1.35578327       0.00000000
Si      -2.69638596      -0.01738143       2.72680433       0.00000000
Si       2.71342530       2.71269225       0.00262007       0.00000000
Si      -0.00208512       2.71313208      -2.71418662       0.00000000
Si       2.71331127      -0.00192222      -2.71418662       0.00000000
Si      -0.00987174      -2.68892514       2.73873255       0.00000000
Si      -0.00232947      -2.71668330      -2.71404872       0.00000000
