10
Lattice="16.28999089631971 0.0 0.0 0.0 16.28999089631971 0.0 0.0 0.0 34.474598006748145" Properties=species:S:1:pos:R:3:initial_magmoms:R:1 pbc="T T T"
Si      -0.26761212      -0.20971746       2.33269050       0.00000000
Si      -1.74348612       1.70165340      -0.52173886       0.00000000
Si       2.37617343       0.75825063       0.19778088       0.00000000
Si      -0.25601364      -1.92062358      -1.72766097       0.00000000
Si      -2.60354925      -0.71042319       2.33979227       0.00000000
Si      -2.98494702       0.52421220      -2.09143713       0.00000000
Si       2.90861208       0.99908199      -2.09147161       0.00000000
Si      -0.43797294       3.22784721      -1.83191221       0.00000000
Si      -1.59358554      -3.39819174      -0.44772185       0.00000000
Si      -1.64853171      -0.84424554      -3.38651060       0.00000000
