10
Lattice="16.28999089631971 0.0 0.0 0.0 16.28999089631971 0.0 0.0 0.0 34.474598006748145" Properties=species:S:1:pos:R:3:initial_magmoms:R:1 pbc="T T T"
Si      -0.53243865      -0.24083136       2.28925249       0.00000000
Si       0.86677461      -1.81389150      -1.28573085       0.00000000
Si      -1.85907996       0.89933832      -1.27669850       0.00000000
Si       1.77686433       1.85249880       0.04088690       0.00000000
Si       2.21560290      -0.47631960      -2.66774931       0.00000000
Si      -0.51337935       2.25297216      -2.66364683       0.00000000
Si      -0.29100456       2.06552313       2.88318119       0.00000000
Si      -2.90861208      -0.99908199       2.09147161       0.00000000
Si       2.38021335      -3.05147538       0.10476836       0.00000000
Si       3.56096142       0.87930162      -1.28504136       0.00000000
