10
Lattice="16.28999089631971 0.0 0.0 0.0 16.28999089631971 0.0 0.0 0.0 34.474598006748145" Properties=species:S:1:pos:R:3:initial_magmoms:R:1 pbc="T T T"
Si      -1.35654975      -1.35635610      -1.35764490       0.00000000
Si       1.35760860       1.35688695      -1.35664514       0.00000000
Si      -1.35835794       1.35716388       1.35750700       0.00000000
Si       1.35796698      -1.35776062       1.35743806       0.00000000
Si      -2.71308321      -0.00053431       2.71287658       0.00000000
Si       2.71450044      -0.00143026      -2.71322133       0.00000000
Si      -0.00140094       2.71381137       2.71508296       0.00000000
Si       2.71516833      -0.00186195       2.71446241       0.00000000
Si      -2.71469592       2.71509828       0.00024132       0.00000000
Si       2.71518462       2.71504941       0.00000000       0.00000000
