10
Lattice="16.28999089631971 0.0 0.0 0.0 16.28999089631971 0.0 0.0 0.0 34.474598006748145" Properties=species:S:1:pos:R:3:initial_magmoms:R:1 pbc="T T T"
Si      -1.35736425       1.35085609      -1.35871362       0.00000000
Si       1.34903747       1.35582128       1.36881468       0.00000000
Si       1.35768095      -1.36368412      -1.35867914       0.00000000
Si      -1.36383138      -1.37034673       1.37770913       0.00000000
Si       0.15014935      -2.62001779       2.75752121       0.00000000
Si      -2.71132389       2.71032175       0.00679150       0.00000000
Si       2.71418183       2.71050094       0.00075844       0.00000000
Si       0.00029709       2.70958870      -2.71553113       0.00000000
Si       2.71460537      -0.00448372      -2.71553113       0.00000000
Si      -2.71456560      -0.00504258      -2.71573798       0.00000000
