10
Lattice="16.28999089631971 0.0 0.0 0.0 16.28999089631971 0.0 0.0 0.0 34.474598006748145" Properties=species:S:1:pos:R:3:initial_magmoms:R:1 pbc="T T T"
Si      -1.35723272       1.35738054       1.35785175       0.00000000
Si      -1.35752056      -1.35816246      -1.35678304       0.00000000
Si       1.35800608       1.35809730      -1.35705883       0.00000000
Si       1.35807124      -1.35788553       1.35771385       0.00000000
Si      -2.71441966       2.71487511       0.00051712       0.00000000
Si       2.71276393      -0.00029322      -2.71659984       0.00000000
Si      -2.71518529       0.00130320       2.71429004       0.00000000
Si      -2.71464772      -2.71492398       0.00037922       0.00000000
Si       0.00120220      -2.71552671       2.71453136       0.00000000
Si       2.71506082       2.71515204       0.00027580       0.00000000
