10
Lattice="16.28999089631971 0.0 0.0 0.0 16.28999089631971 0.0 0.0 0.0 34.474598006748145" Properties=species:S:1:pos:R:3:initial_magmoms:R:1 pbc="T T T"
Si      -2.26105200      -0.95221959       0.30185975       0.00000000
Si       1.58897940      -1.82958270      -0.56217758       0.00000000
Si       0.37159119       1.73444843      -1.81508860       0.00000000
Si       0.61699745       1.50226706       2.06920100       0.00000000
Si       2.15683577       2.86435541      -0.48481654       0.00000000
Si      -2.74001058      -1.22033670      -2.04486192       0.00000000
Si       3.14441702      -0.70320835      -1.93137148       0.00000000
Si       1.75695536       0.53263413      -3.37968463       0.00000000
Si       2.49599357       0.36861826       2.96536868       0.00000000
Si      -2.58996339      -0.70978136       2.86132428       0.00000000
