10
Lattice="16.28999089631971 0.0 0.0 0.0 16.28999089631971 0.0 0.0 0.0 34.474598006748145" Properties=species:S:1:pos:R:3:initial_magmoms:R:1 pbc="T T T"
Si       1.67744646       1.41330411       0.82056484       0.00000000
Si       1.37813400      -1.88944452      -0.47219883       0.00000000
Si      -1.21425660      -1.36640520       1.54298045       0.00000000
Si      -0.90603351       1.23367428      -2.10315850       0.00000000
Si       3.48079900       0.89127477      -0.69793863       0.00000000
Si       2.12880978      -2.42725398       1.74958683       0.00000000
Si      -1.69675011      -3.31232878       0.32557829       0.00000000
Si       0.39943080      -1.73662803       3.28918876       0.00000000
Si      -0.03077181      -3.58526284      -1.33230606       0.00000000
Si       2.59889031       0.97174737       2.91713869       0.00000000
