10
Lattice="16.28999089631971 0.0 0.0 0.0 16.28999089631971 0.0 0.0 0.0 34.474598006748145" Properties=species:S:1:pos:R:3:initial_magmoms:R:1 pbc="T T T"
Si      -1.40890581      -1.69581832      -0.86010723       0.00000000
Si      -1.37813400       1.88944452       0.47219883       0.00000000
Si       0.75067578      -0.53780946       2.22178566       0.00000000
Si       1.79805503       0.51623010      -1.65223051       0.00000000
Si      -2.59239060       0.52303932       2.01517928       0.00000000
Si      -3.07488411      -1.42288426       0.79777712       0.00000000
Si       2.10266500       2.78071929      -0.22573979       0.00000000
Si       0.29931246       3.30274863       1.29276367       0.00000000
Si       1.67299100      -2.70383768       1.86831741       0.00000000
Si       3.67705115      -0.61741869      -0.75606283       0.00000000
