10
Lattice="16.28999089631971 0.0 0.0 0.0 16.28999089631971 0.0 0.0 0.0 34.474598006748145" Properties=species:S:1:pos:R:3:initial_magmoms:R:1 pbc="T T T"
Si      -0.39519540       0.89233362       2.09336771       0.00000000
Si       0.05646114      -2.30872631       0.15906588       0.00000000
Si      -2.03009238       0.77858055      -0.92653981       0.00000000
Si       1.87411563       0.82893294      -1.18520287       0.00000000
Si       1.05231771      -2.32462047       2.32286524       0.00000000
Si       0.89085123       2.83229343       1.80447042       0.00000000
Si      -2.03396940      -2.80388839      -0.81901348       0.00000000
Si       2.26079855       2.92988682      -0.19147202       0.00000000
Si       1.12387968      -0.28194732       3.52506409       0.00000000
Si      -2.25008883       3.09477420      -0.69514618       0.00000000
