10
Lattice="16.28999089631971 0.0 0.0 0.0 16.28999089631971 0.0 0.0 0.0 34.474598006748145" Properties=species:S:1:pos:R:3:initial_magmoms:R:1 pbc="T T T"
Si      -1.26014553       1.37158542      -1.43421303       0.00000000
Si       1.10365469       1.84200804       1.12459649       0.00000000
Si       1.45388154      -1.35492075      -1.40563357       0.00000000
Si      -2.01468204      -0.66479490       1.33733935       0.00000000
Si      -2.44227825       2.85350301      -0.02109847       0.00000000
Si      -2.61364905       0.00654858      -2.79051342       0.00000000
Si      -2.78352117      -2.66496255       0.04247273       0.00000000
Si       0.10290393      -2.71182888      -2.78244636       0.00000000
Si       0.10038543       2.72007162      -2.78937576       0.00000000
Si      -0.54763722       3.65296734       1.28445529       0.00000000
