10
Lattice="16.28999089631971 0.0 0.0 0.0 16.28999089631971 0.0 0.0 0.0 34.474598006748145" Properties=species:S:1:pos:R:3:initial_magmoms:R:1 pbc="T T T"
Si       1.74539205       1.00260063       1.16844820       0.00000000
Si       0.67882059       0.46437903      -2.22330254       0.00000000
Si      -1.07733915      -2.07384732       0.48971194       0.00000000
Si      -1.42345278       1.74267162       0.84993721       0.00000000
Si      -3.15478656      -1.06021836      -0.30454877       0.00000000
Si      -0.86027490       2.39340825      -2.32869145       0.00000000
Si      -0.45045108       3.54353112      -0.23466872       0.00000000
Si       1.12746348       0.46130022       3.37751273       0.00000000
Si      -1.84513572      -2.32495767      -2.05041234       0.00000000
Si       3.55598875      -0.40045707       0.76726708       0.00000000
