10
Lattice="16.28999089631971 0.0 0.0 0.0 16.28999089631971 0.0 0.0 0.0 34.474598006748145" Properties=species:S:1:pos:R:3:initial_magmoms:R:1 pbc="T T T"
Si      -2.11918239      -0.49661694       0.89547818       0.00000000
Si       1.54373718      -1.21143843       1.30076178       0.00000000
Si       0.67061043       2.26243665      -0.47454311       0.00000000
Si       0.21281256      -1.09281465      -2.14997503       0.00000000
Si       2.55265182      -0.61323705      -1.95970962       0.00000000
Si       2.53845345       0.49137156       2.50265037       0.00000000
Si       2.74631711       1.76076981      -1.57673110       0.00000000
Si      -2.43178749      -2.78262522       0.37029186       0.00000000
Si      -1.01568150       2.84289822      -2.19089640       0.00000000
Si      -2.00901312      -0.90256374      -3.02542346       0.00000000
