10
Lattice="16.28999089631971 0.0 0.0 0.0 16.28999089631971 0.0 0.0 0.0 34.474598006748145" Properties=species:S:1:pos:R:3:initial_magmoms:R:1 pbc="T T T"
Si      -1.61844408       1.45117836       0.92157547       0.00000000
Si       2.28283173       0.51554592       0.36256955       0.00000000
Si      -0.10161702      -0.56158146      -2.31159204       0.00000000
Si      -0.69361191      -1.98350298       1.25853038       0.00000000
Si      -3.02531364       1.30354209      -1.01679436       0.00000000
Si       0.29727621      -2.83711527      -2.10543383       0.00000000
Si       1.09517670      -1.96017570       2.86883975       0.00000000
Si      -2.30000139      -0.04263093      -2.85573940       0.00000000
Si      -1.68990831       0.49080141       3.23509808       0.00000000
Si       3.41178316      -0.44492877      -1.45927607       0.00000000
