10
Lattice="16.28999089631971 0.0 0.0 0.0 16.28999089631971 0.0 0.0 0.0 34.474598006748145" Properties=species:S:1:pos:R:3:initial_magmoms:R:1 pbc="T T T"
Si       2.07570668      -0.50166684      -1.10218799       0.00000000
Si      -0.67061043      -2.26243665       0.47454311       0.00000000
Si       0.65064689       1.68065559       1.67277738       0.00000000
Si      -1.68629193       0.58046157      -1.71635330       0.00000000
Si       0.53338347       0.09290187       3.39468109       0.00000000
Si       3.70503737       0.38406933       0.36863708       0.00000000
Si       1.88204139      -2.87567370      -1.48516651       0.00000000
Si      -2.43124992       2.68867494      -1.05564726       0.00000000
Si      -0.45779787      -3.35525130      -1.67543192       0.00000000
Si       1.86784302      -1.77106509       2.97719347       0.00000000
