10
Lattice="16.28999089631971 0.0 0.0 0.0 16.28999089631971 0.0 0.0 0.0 34.474598006748145" Properties=species:S:1:pos:R:3:initial_magmoms:R:1 pbc="T T T"
Si       1.33445955      -1.86396696      -0.41748762       0.00000000
Si       1.21110027       0.90841185       1.77678730       0.00000000
Si       0.11726342       1.58775372      -1.72190371       0.00000000
Si      -2.01451914      -0.87627168       0.90575162       0.00000000
Si      -0.53338347      -0.09290187      -3.39468109       0.00000000
Si      -0.99789282      -1.43674542       3.00584188       0.00000000
Si       1.38669181      -1.09936323       3.04700457       0.00000000
Si      -0.31030821       2.52879576       2.69146785       0.00000000
Si       1.67626448      -2.94062193       1.60834432       0.00000000
Si       3.44599379      -1.20262554      -1.17989378       0.00000000
