10
Lattice="16.28999089631971 0.0 0.0 0.0 16.28999089631971 0.0 0.0 0.0 34.474598006748145" Properties=species:S:1:pos:R:3:initial_magmoms:R:1 pbc="T T T"
Si       0.49821336      -1.16374131      -1.97387869       0.00000000
Si       1.10930013      -1.09195128       1.77551174       0.00000000
Si      -2.26417968       0.46242423       0.53408077       0.00000000
Si       1.07434179       2.13894216       0.01427249       0.00000000
Si       2.88279799      -0.82635912      -1.93271599       0.00000000
Si      -0.31571649       3.26493695       1.63671693       0.00000000
Si      -2.45553831      -0.35499168       2.76651909       0.00000000
Si      -2.40614703       2.76977487       0.65863756       0.00000000
Si      -0.24070104      -0.57586779       3.68599160       0.00000000
Si       0.65717118      -3.39573195       1.48151220       0.00000000
