10
Lattice="16.28999089631971 0.0 0.0 0.0 16.28999089631971 0.0 0.0 0.0 34.474598006748145" Properties=species:S:1:pos:R:3:initial_magmoms:R:1 pbc="T T T"
Si       2.28319730      -0.34795440       0.62288738       0.00000000
Si      -1.07434179      -2.13894216      -0.01427249       0.00000000
Si       0.11145618       0.66285771      -2.30252521       0.00000000
Si      -1.39005828       1.12599479       1.62244444       0.00000000
Si      -3.48048882       0.63083271       0.64436507       0.00000000
Si       0.03495834      -3.23089344       1.76123925       0.00000000
Si       1.63286466      -0.95752620      -3.21720576       0.00000000
Si      -3.33852147      -1.67651793       0.51980828       0.00000000
Si       2.33830637      -2.49825069       1.77216770       0.00000000
Si       3.05035856       1.59938545       1.79447278       0.00000000
