10
Lattice="16.28999089631971 0.0 0.0 0.0 16.28999089631971 0.0 0.0 0.0 34.474598006748145" Properties=species:S:1:pos:R:3:initial_magmoms:R:1 pbc="T T T"
Si       0.87951339      -1.41320637      -1.64223287       0.00000000
Si       0.45576162       2.29679226       0.30285951       0.00000000
Si       0.13061322      -1.01690325       2.14925106       0.00000000
Si      -2.35209681      -0.31128561      -0.40931713       0.00000000
Si      -0.52289271      -3.31683948      -1.40446143       0.00000000
Si       0.31609116      -0.19267812      -3.64138145       0.00000000
Si       2.85104322       2.43162459       0.64329636       0.00000000
Si      -0.11997585       3.41881488      -1.70559721       0.00000000
Si       1.87462062       0.23180670       3.34569266       0.00000000
Si      -2.73877973      -2.41223949      -1.40304797       0.00000000
