10
Lattice="16.28999089631971 0.0 0.0 0.0 16.28999089631971 0.0 0.0 0.0 34.474598006748145" Properties=species:S:1:pos:R:3:initial_magmoms:R:1 pbc="T T T"
Si      -0.13061322       1.01690325      -2.14925106       0.00000000
Si       0.59921136      -2.28794679       0.55600663       0.00000000
Si       1.74400740       1.24870995       1.19644159       0.00000000
Si      -2.23885850      -0.40558842       0.95939412       0.00000000
Si      -0.16053795      -2.00274147       2.71632404       0.00000000
Si      -2.48271003       0.70561764      -2.55856820       0.00000000
Si       0.20764863       2.87314875       2.26015591       0.00000000
Si       0.32514840       3.31369551      -1.84639155       0.00000000
Si       0.74890017      -0.39630312      -3.79148393       0.00000000
Si      -3.85265735       0.60802425      -0.56262575       0.00000000
