10
Lattice="16.28999089631971 0.0 0.0 0.0 16.28999089631971 0.0 0.0 0.0 34.474598006748145" Properties=species:S:1:pos:R:3:initial_magmoms:R:1 pbc="T T T"
Si      -0.88759064       1.10086191       1.88740191       0.00000000
Si      -1.61379884       1.01361267      -1.52201988       0.00000000
Si       2.23885850       0.40558842      -0.95939412       0.00000000
Si      -1.38077039      -2.10062808       0.19857380       0.00000000
Si       2.07832055      -1.59715305       1.75692992       0.00000000
Si      -2.89984547      -0.92634714      -1.23312259       0.00000000
Si       2.83806986      -1.88235837      -0.40338750       0.00000000
Si       0.97462744      -3.42314639      -0.87220782       0.00000000
Si      -0.24385153       1.11120606      -3.51796232       0.00000000
Si      -2.00949923      -0.55237761       3.14193875       0.00000000
