10
Lattice="16.28999089631971 0.0 0.0 0.0 16.28999089631971 0.0 0.0 0.0 34.474598006748145" Properties=species:S:1:pos:R:3:initial_magmoms:R:1 pbc="T T T"
Si       1.53635877      -1.62443880      -1.06371432       0.00000000
Si      -0.88102836       1.17595881      -2.00097574       0.00000000
Si      -1.59630434      -1.01600730       1.62413511       0.00000000
Si       1.05982740       1.52451594       1.66992430       0.00000000
Si       0.66494151       3.17321055      -1.65650536       0.00000000
Si      -0.20764863      -2.87314875      -2.26015591       0.00000000
Si       2.18235501       3.12989544       0.27931335       0.00000000
Si       2.37904047       0.22558392       3.17366574       0.00000000
Si      -3.33409778      -2.17787526       0.58664012       0.00000000
Si      -0.34238322      -2.46873321       3.16334059       0.00000000
