10
Lattice="16.28999089631971 0.0 0.0 0.0 16.28999089631971 0.0 0.0 0.0 34.474598006748145" Properties=species:S:1:pos:R:3:initial_magmoms:R:1 pbc="T T T"
Si      -1.35770960      -1.34736219       1.39155758       0.00000000
Si       1.36088289       1.36849032       1.38969595       0.00000000
Si      -1.47554657       1.31167080      -1.48076066       0.00000000
Si       1.39714443      -1.40690214      -1.47853015       0.00000000
Si      -2.69867375      -2.70591561       0.01460000       0.00000000
Si      -2.71072835       2.69646741       0.03340590       0.00000000
Si       2.51967204       0.19847736      -2.86914110       0.00000000
Si       2.71635750      -2.70583416       0.02521129       0.00000000
Si       2.71028133       2.71596654       0.02858635       0.00000000
Si       0.00299736      -2.70633915       2.75075384       0.00000000
