10
Lattice="16.28999089631971 0.0 0.0 0.0 16.28999089631971 0.0 0.0 0.0 34.474598006748145" Properties=species:S:1:pos:R:3:initial_magmoms:R:1 pbc="T T T"
Si       1.35416805      -1.35563751      -1.35995470       0.00000000
Si      -1.35522126       1.35519768      -1.35957548       0.00000000
Si       1.35716378       1.35703845       1.35681751       0.00000000
Si      -1.35755073      -1.35783666       1.35681751       0.00000000
Si       0.00114930       2.68819209      -2.71810638       0.00000000
Si      -2.71411677      -0.00050499       2.71332475       0.00000000
Si      -0.00046855       2.71396287       2.71363502       0.00000000
Si      -2.71426338      -2.71394658      -0.00113766       0.00000000
Si       2.71508678      -0.00037467       2.71404872       0.00000000
Si      -0.00036379      -2.71533123       2.71415214       0.00000000
