10
Lattice="16.28999089631971 0.0 0.0 0.0 16.28999089631971 0.0 0.0 0.0 34.474598006748145" Properties=species:S:1:pos:R:3:initial_magmoms:R:1 pbc="T T T"
Si      -1.43791667       1.05347430       1.53718871       0.00000000
Si       1.36259334      -1.94007384       0.58527558       0.00000000
Si      -1.75197321       0.19179846      -1.72990182       0.00000000
Si       2.27716281       1.06657146      -0.26621299       0.00000000
Si      -0.01299942       1.11430116      -2.93185935       0.00000000
Si      -0.14273298      -2.10069324       2.37019889       0.00000000
Si       1.21472901       2.61889443      -1.68918730       0.00000000
Si      -0.66389895      -0.07415208       3.38444213       0.00000000
Si       1.76653647      -3.21740532      -1.53187962       0.00000000
Si      -1.99314177      -3.17984058       1.47341067       0.00000000
