10
Lattice="16.28999089631971 0.0 0.0 0.0 16.28999089631971 0.0 0.0 0.0 34.474598006748145" Properties=species:S:1:pos:R:3:initial_magmoms:R:1 pbc="T T T"
Si       0.99471627       1.70280999       1.20188858       0.00000000
Si       1.78293236      -0.52942500      -1.41321799       0.00000000
Si      -0.84098658      -1.87445772       1.13662813       0.00000000
Si      -1.54373718       1.21143843      -1.30076178       0.00000000
Si       1.00891463       0.59820138      -3.26047140       0.00000000
Si      -1.97483574      -2.77335621      -0.71400380       0.00000000
Si       1.33652119       0.62615502       3.22772052       0.00000000
Si      -1.33092462       0.11862378      -3.45073682       0.00000000
Si       3.70313239       0.25943454      -0.37160190       0.00000000
Si      -3.66291957       0.71482149      -0.40528360       0.00000000
