10
Lattice="16.28999089631971 0.0 0.0 0.0 16.28999089631971 0.0 0.0 0.0 34.474598006748145" Properties=species:S:1:pos:R:3:initial_magmoms:R:1 pbc="T T T"
Si       0.73443465      -0.91157211      -2.02741777       0.00000000
Si       0.04364091      -1.72936269       1.58745270       0.00000000
Si      -2.15793630       0.96111000      -0.16399575       0.00000000
Si       1.44721989       1.81043802       0.61444110       0.00000000
Si      -1.20956508      -0.42761250       3.19727943       0.00000000
Si       2.40134148      -2.04229359       1.73821020       0.00000000
Si      -0.53805870      -2.95024932      -2.18265697       0.00000000
Si       0.89928945       3.45391983      -1.11042742       0.00000000
Si       0.20867490       0.59438952      -3.76331817       0.00000000
Si      -2.49974123       2.03776497      -2.18982769       0.00000000
