10
Lattice="16.28999089631971 0.0 0.0 0.0 16.28999089631971 0.0 0.0 0.0 34.474598006748145" Properties=species:S:1:pos:R:3:initial_magmoms:R:1 pbc="T T T"
Si      -0.45576162      -2.29679226      -0.30285951       0.00000000
Si      -0.57573747       1.12202262      -2.00845673       0.00000000
Si       2.39528160       0.13483233       0.34043685       0.00000000
Si      -0.99852813       0.73541205       2.10557172       0.00000000
Si       2.56769496       2.30524677       1.17130960       0.00000000
Si       0.67746852      -0.17972757      -3.61828346       0.00000000
Si       0.54744174       2.73266379       2.45004210       0.00000000
Si      -0.32514840      -3.31369551       1.84639155       0.00000000
Si      -2.91035674       0.82215630      -2.33868909       0.00000000
Si      -2.80785843      -2.60807787      -0.71217664       0.00000000
