10
Lattice="16.28999089631971 0.0 0.0 0.0 16.28999089631971 0.0 0.0 0.0 34.474598006748145" Properties=species:S:1:pos:R:3:initial_magmoms:R:1 pbc="T T T"
Si      -1.52064218       1.30621365      -1.31406899       0.00000000
Si      -1.19262837      -0.76432680       2.06289215       0.00000000
Si       1.26635202      -1.57291353      -1.54646238       0.00000000
Si       1.98192285       1.57209903       0.30630697       0.00000000
Si       2.35383984       0.46061604       2.27422155       0.00000000
Si       0.43670232       0.12140937       3.53371722       0.00000000
Si       0.03479544       2.43258800      -2.68326289       0.00000000
Si      -2.55155434      -0.30740859      -2.74286950       0.00000000
Si      -1.38629366      -3.13833366       1.67991363       0.00000000
Si       3.15133308      -1.64654433       1.59362366       0.00000000
