10
Lattice="10.86 0.0 0.0 0.0 10.86 0.0 0.0 0.0 10.86" Properties=species:S:1:pos:R:3:initial_magmoms:R:1 pbc="T T T"
Si       1.15874028       1.49788722       1.35757602       0.00000000
Si       1.30216830      -1.35413340      -1.38107706       0.00000000
Si      -1.41283170      -1.35413340       1.33392294       0.00000000
Si      -1.41283170       1.36086660      -1.38107706       0.00000000
Si       2.47094322      -0.16458330       2.49438996       0.00000000
Si       2.63807862      -2.59683234      -0.01269534       0.00000000
Si       2.65966830       0.00336660      -2.73857706       0.00000000
Si      -0.05533170      -2.71163340      -2.73857706       0.00000000
Si      -0.05533170       2.71836660      -2.73857706       0.00000000
Si       2.63061780       2.82809604       0.00139008       0.00000000
