10
Lattice="10.86 0.0 0.0 0.0 10.86 0.0 0.0 0.0 10.86" Properties=species:S:1:pos:R:3:initial_magmoms:R:1 pbc="T T T"
Si      -1.42992534       1.17809280      -1.16495220       0.00000000
Si       1.28507466      -1.53690720      -1.16495220       0.00000000
Si       1.28507466       1.17809280       1.55004780       0.00000000
Si      -0.07242534       2.53559280      -2.52245220       0.00000000
Si       2.64257466      -0.17940720      -2.52245220       0.00000000
Si       2.64257466       2.53559280       0.19254780       0.00000000
Si      -2.78742534      -0.17940720      -2.52245220       0.00000000
Si      -0.06237984       2.46646890       2.89118178       0.00000000
Si      -0.07242534      -2.89440720      -2.52245220       0.00000000
Si      -2.81647584       2.64532224       0.21751494       0.00000000
