10
Lattice="10.86 0.0 0.0 0.0 10.86 0.0 0.0 0.0 10.86" Properties=species:S:1:pos:R:3:initial_magmoms:R:1 pbc="T T T"
Si       1.29100422      -1.06370442      -1.32171630       0.00000000
Si      -1.42399578      -1.06370442       1.39328370       0.00000000
Si       1.18569480       1.66678194       1.27066344       0.00000000
Si      -1.42399578       1.65129558      -1.32171630       0.00000000
Si      -0.06649578      -2.42120442      -2.67921630       0.00000000
Si       2.74062960      -2.39201274       0.01107720       0.00000000
Si      -2.78149578      -2.42120442       0.03578370       0.00000000
Si       2.37145476       0.62774058       2.85271566       0.00000000
Si       2.64850422       0.29379558      -2.67921630       0.00000000
Si      -2.78149578       0.29379558      -2.67921630       0.00000000
