10
Lattice="16.290000149 0.0 0.0 0.0 16.290000149 0.0 0.0 0.0 29.1751946751" Properties=species:S:1:pos:R:3:initial_magmoms:R:1 pbc="T T T"
H        0.45206379       1.28420587      -0.66242280       0.00000000
Si      -0.82516996       0.99007363       1.93519066       0.00000000
Si      -1.87722704      -0.70371172      -1.27866126       0.00000000
Si       2.01355805      -1.36958176      -0.07573881       0.00000000
H        0.97013467      -0.25417287      -2.48123361       0.00000000
H       -0.65138824      -2.66294261      -1.05374968       0.00000000
Si       3.16667829       0.69255307      -0.66962907       0.00000000
Si      -2.32259564       2.30176073       0.64086233       0.00000000
Si       0.78959260      -2.95116159      -1.49680419       0.00000000
Si       2.00378405       0.85315618      -2.69231614       0.00000000
