10
Lattice="16.290000149 0.0 0.0 0.0 16.290000149 0.0 0.0 0.0 29.1751946751" Properties=species:S:1:pos:R:3:initial_magmoms:R:1 pbc="T T T"
Si       1.61083666      -0.17080065      -1.68078297       0.00000000
Si      -0.43166871       2.28880204      -0.30199244       0.00000000
Si       0.25124067      -0.51323274       2.30028555       0.00000000
Si      -1.89684020      -1.30398193      -0.63140956       0.00000000
H        1.30458466      -2.20863080       1.50036356       0.00000000
H       -2.78097996      -0.45297603      -1.51964837       0.00000000
Si      -1.49651344       1.02701935       2.75202901       0.00000000
Si       0.05160672      -0.95557141      -3.27322344       0.00000000
Si      -2.32650524       2.27166333       1.03732405       0.00000000
Si      -0.86815927      -2.79021639      -2.10551545       0.00000000
