10
Lattice="16.290000149 0.0 0.0 0.0 16.290000149 0.0 0.0 0.0 29.1751946751" Properties=species:S:1:pos:R:3:initial_magmoms:R:1 pbc="T T T"
Si      -1.08095554      -1.17196777       1.70181828       0.00000000
Si       0.87602734      -1.78015493      -1.28370857       0.00000000
Si       1.87263326       1.46388457       0.15912151       0.00000000
Si      -1.59933592       1.30222261      -1.21056635       0.00000000
H        0.47899116       2.30423681       1.78441326       0.00000000
H       -1.22761441      -0.37918233       2.97980851       0.00000000
H        2.59421510       1.54285849       1.48253752       0.00000000
Si       1.99624178      -0.33827814      -2.83369913       0.00000000
Si      -3.29274660      -1.08693397       0.90093001       0.00000000
Si      -0.28476549       2.66005928      -2.59551284       0.00000000
