10
Lattice="16.290000149 0.0 0.0 0.0 16.290000149 0.0 0.0 0.0 29.1751946751" Properties=species:S:1:pos:R:3:initial_magmoms:R:1 pbc="T T T"
Si      -1.38012302       1.45081022      -1.15679647       0.00000000
Si       1.52722009      -1.26444610      -1.21400903       0.00000000
Si       0.84688453       1.66257533       1.39477853       0.00000000
Si      -0.92074339      -1.73180621       1.27769848       0.00000000
H        0.23395698       2.96838012       0.95452484       0.00000000
Si       2.55894725      -2.09160344       0.73953283       0.00000000
Si       0.11474676      -2.65893527      -2.51300539       0.00000000
Si      -2.61157822       0.08929298      -2.60120201       0.00000000
Si       0.09045837       1.08033000       3.54799542       0.00000000
Si       0.73052506      -3.38636523       1.37543538       0.00000000
