10
Lattice="16.290000149 0.0 0.0 0.0 16.290000149 0.0 0.0 0.0 29.1751946751" Properties=species:S:1:pos:R:3:initial_magmoms:R:1 pbc="T T T"
Si      -1.34402275       1.28032885       1.45919736       0.00000000
Si      -1.36904419      -1.40572927      -1.31607261       0.00000000
Si       1.34048782      -1.33648048       1.42144466       0.00000000
Si       1.33639903       1.42211701      -1.35896015       0.00000000
Si       2.65657322      -0.02137248      -2.67543537       0.00000000
Si      -2.67610493      -2.69750999       0.15340317       0.00000000
Si      -2.77493637       2.60014466       0.17367993       0.00000000
Si       0.06043590      -2.77923693      -2.60100653       0.00000000
Si      -2.71836119      -0.04406445      -2.69280337       0.00000000
Si       2.69371442       2.75151135       0.02366108       0.00000000
