10
Lattice="16.290000149 0.0 0.0 0.0 16.290000149 0.0 0.0 0.0 29.1751946751" Properties=species:S:1:pos:R:3:initial_magmoms:R:1 pbc="T T T"
Si      -0.92867173       0.81580809       1.99675032       0.00000000
Si       1.36105069       1.38403588      -1.33654484       0.00000000
Si      -1.86902828      -0.89740633      -1.12292407       0.00000000
Si       1.84131247      -1.17386881       0.93246840       0.00000000
H        2.64400223       1.41964582      -0.51926011       0.00000000
H       -2.91483000       0.21645012      -1.10422277       0.00000000
Si       0.52506906      -2.60129637       2.27869940       0.00000000
Si       1.96356892      -0.13180402      -3.09586743       0.00000000
Si       0.40738358       2.79123125       2.48925678       0.00000000
Si      -0.64474371      -1.01023967       3.56649250       0.00000000
