10
Lattice="16.290000149 0.0 0.0 0.0 16.290000149 0.0 0.0 0.0 29.1751946751" Properties=species:S:1:pos:R:3:initial_magmoms:R:1 pbc="T T T"
Si       1.36707310       1.35804844       1.32933857       0.00000000
Si       1.37155285      -1.35716878      -1.33187681       0.00000000
Si      -1.34320825       1.38315133      -1.34351771       0.00000000
Si      -1.37516923      -1.33621984       1.36198561       0.00000000
Si      -0.07081263       2.69289992       2.61012962       0.00000000
Si      -0.00114030      -2.70557354      -2.67422752       0.00000000
Si      -2.69127092       0.02109555      -2.69371655       0.00000000
Si      -0.02028105      -2.70304859       2.69888056       0.00000000
Si       2.72104904       0.00721647      -2.68861089       0.00000000
Si       2.72064179       2.70953201      -0.03226777       0.00000000
