10
Lattice="16.290000149 0.0 0.0 0.0 16.290000149 0.0 0.0 0.0 29.1751946751" Properties=species:S:1:pos:R:3:initial_magmoms:R:1 pbc="T T T"
Si       1.21124296      -1.41797935       1.45060322       0.00000000
Si      -1.48354660      -1.24872625      -1.37922815       0.00000000
Si      -1.48470319       1.29680081       1.33876216       0.00000000
Si       1.61881876       1.48418680      -0.94046240       0.00000000
Si       2.55278963      -2.77175982       0.10529328       0.00000000
H        1.17253792      -1.11332377      -3.44976254       0.00000000
Si       0.88741405       3.67316697      -0.53988698       0.00000000
Si      -2.79381648      -2.61202007       0.11054481       0.00000000
H        3.06276438      -0.68908330      -2.21083790       0.00000000
Si      -0.18893142       2.58206439       2.84526418       0.00000000
