10
Lattice="16.290000149 0.0 0.0 0.0 16.290000149 0.0 0.0 0.0 29.1751946751" Properties=species:S:1:pos:R:3:initial_magmoms:R:1 pbc="T T T"
Si       1.71771536      -1.63994690      -0.06856171       0.00000000
Si       1.39005829       1.74812879      -0.87044193       0.00000000
Si      -2.05436450      -1.03622320      -0.67292587       0.00000000
Si      -0.91890262       1.11418714       1.98309633       0.00000000
H        0.79283431      -1.48313935      -2.60099778       0.00000000
H       -0.61597378       0.55754155      -3.04624043       0.00000000
H       -1.47167119       2.66965409       1.78105811       0.00000000
Si       2.14335677      -1.88499737       2.22037206       0.00000000
Si      -3.47510175       0.89749756      -0.66402743       0.00000000
Si      -2.46852146       2.75361276       0.49090183       0.00000000
