10
Lattice="16.290000149 0.0 0.0 0.0 16.290000149 0.0 0.0 0.0 29.1751946751" Properties=species:S:1:pos:R:3:initial_magmoms:R:1 pbc="T T T"
Si      -0.82999180       1.24464398      -1.71470496       0.00000000
Si      -1.83221777      -1.02268621       0.94166150       0.00000000
Si       1.04330935       1.85122494       0.95152272       0.00000000
Si       1.74775412      -1.54025209      -0.45174346       0.00000000
H       -1.01040355       2.63200790      -1.10438907       0.00000000
Si      -0.42549480      -2.38477457       2.19660041       0.00000000
Si       1.49651344      -1.02701935      -2.75202901       0.00000000
Si       2.46057194       0.50757506       2.20488616       0.00000000
Si       1.06484473       1.26178269      -3.05402145       0.00000000
Si       0.99896797      -0.92706391       3.42059610       0.00000000
