10
Lattice="16.290000149 0.0 0.0 0.0 16.290000149 0.0 0.0 0.0 29.1751946751" Properties=species:S:1:pos:R:3:initial_magmoms:R:1 pbc="T T T"
Si       1.35871633       1.36552555       1.33108908       0.00000000
Si       1.36539523      -1.34659657      -1.35078234       0.00000000
Si      -1.33138171       1.36627489      -1.37397662       0.00000000
Si      -1.35588187      -1.37743354       1.35585882       0.00000000
Si       2.69488730      -0.00988803       2.68435131       0.00000000
Si      -0.00280188      -2.69558777      -2.68916522       0.00000000
Si      -2.70752834       0.00259011      -2.68181307       0.00000000
Si      -2.71254566       2.68102451      -0.01277874       0.00000000
Si       0.01267362       2.71321355       2.69873468       0.00000000
Si       2.69690726       2.72290610      -0.04948113       0.00000000
