10
Lattice="16.290000149 0.0 0.0 0.0 16.290000149 0.0 0.0 0.0 29.1751946751" Properties=species:S:1:pos:R:3:initial_magmoms:R:1 pbc="T T T"
Si       1.38668626       1.35891181      -1.30573584       0.00000000
Si       1.38179926      -1.34607529       1.33648649       0.00000000
Si      -1.31865922       1.36904419       1.38935195       0.00000000
Si      -1.33068124      -1.34636851      -1.41362571       0.00000000
Si       0.01666467       2.72013518      -2.61969908       0.00000000
Si       0.01306458      -2.69078222       2.67845792       0.00000000
Si      -2.67808254      -2.69316056      -0.04516320       0.00000000
Si      -2.66538286       2.72851638       0.03398910       0.00000000
Si       2.71060715       0.00658116      -2.68969037       0.00000000
Si      -2.69419172       0.02119329       2.73998841       0.00000000
