10
Lattice="16.290000149 0.0 0.0 0.0 16.290000149 0.0 0.0 0.0 29.1751946751" Properties=species:S:1:pos:R:3:initial_magmoms:R:1 pbc="T T T"
Si      -1.35871633      -1.36552555      -1.33108908       0.00000000
Si      -1.34604271       1.34768800       1.36764560       0.00000000
Si       1.33617097      -1.37541358       1.35326223       0.00000000
Si       1.33819093       1.35738055      -1.38057021       0.00000000
Si      -2.70125669       2.67830408      -0.01905140       0.00000000
Si       2.67856961      -0.01443294       2.70728301       0.00000000
Si       0.00667890      -2.71212212      -2.68187142       0.00000000
Si      -2.69009804       0.00074934      -2.70506570       0.00000000
Si       2.69023162       2.71029764      -0.01954738       0.00000000
Si      -2.70094718      -0.02707398       2.70935445       0.00000000
