10
Lattice="16.290000149 0.0 0.0 0.0 16.290000149 0.0 0.0 0.0 29.1751946751" Properties=species:S:1:pos:R:3:initial_magmoms:R:1 pbc="T T T"
Si      -1.34767230      -1.35436690       1.35696748       0.00000000
Si      -1.36840947       1.35596332      -1.34170885       0.00000000
Si       1.33069043      -1.34895862      -1.39078153       0.00000000
Si       1.31458125       1.36539523       1.39437008       0.00000000
Si       0.02967197       2.69026094      -2.67682411       0.00000000
Si       2.68136602      -2.70936911      -0.03206354       0.00000000
Si      -2.69174392       0.01052334       2.70783734       0.00000000
Si       2.69011375       2.71324613       0.04373362       0.00000000
Si      -2.71878532      -2.70212006       0.00183804       0.00000000
Si       2.70356929       0.01583388       2.72388370       0.00000000
