10
Lattice="16.290000149 0.0 0.0 0.0 16.290000149 0.0 0.0 0.0 29.1751946751" Properties=species:S:1:pos:R:3:initial_magmoms:R:1 pbc="T T T"
Si       1.38551338      -1.35024553      -1.35472099       0.00000000
Si      -1.35115777      -1.38492694       1.35442924       0.00000000
Si      -1.33159348       1.31520574      -1.44274255       0.00000000
Si       1.40895469       1.36397800       1.31883550       0.00000000
Si      -2.69044013      -2.67270032      -0.07608891       0.00000000
Si       2.70001865      -0.04978224       2.67787442       0.00000000
H       -1.10783404       2.94650265       2.14250960       0.00000000
Si       0.07754040       2.43331877       2.94167653       0.00000000
Si       2.72837954       2.69058674      -0.12247747       0.00000000
Si       0.04178385      -2.67744071      -2.76210321       0.00000000
