10
Lattice="16.290000149 0.0 0.0 0.0 16.290000149 0.0 0.0 0.0 29.1751946751" Properties=species:S:1:pos:R:3:initial_magmoms:R:1 pbc="T T T"
Si      -1.27825025       1.37319326      -1.38705878       0.00000000
Si       1.30153843       1.32913206       1.42343441       0.00000000
Si      -1.41134932      -1.39000942       1.25696075       0.00000000
Si       1.32758614      -1.31502655      -1.42110623       0.00000000
Si       2.64448604       2.66247020       0.07552583       0.00000000
Si       2.65794158      -2.70922250      -0.05156132       0.00000000
Si      -0.04580748      -2.73737162       2.62950778       0.00000000
Si      -0.09769113      -2.67592574      -2.70320899       0.00000000
Si      -2.70978158       2.68165982      -0.03519404       0.00000000
Si      -2.69422723      -0.04494411       2.71192771       0.00000000
