10
Lattice="16.290000149 0.0 0.0 0.0 16.290000149 0.0 0.0 0.0 29.1751946751" Properties=species:S:1:pos:R:3:initial_magmoms:R:1 pbc="T T T"
Si       1.34463526       1.34706898       1.37400579       0.00000000
Si      -1.28666566      -1.33069753       1.46339859       0.00000000
Si      -1.39421224       1.34456032      -1.36260996       0.00000000
Si       1.38823707      -1.36280512      -1.35112077       0.00000000
Si      -0.09303219      -2.75188602      -2.54403817       0.00000000
Si       0.02859913       2.55858887      -2.77397751       0.00000000
Si      -2.67219533      -2.67533930       0.18317938       0.00000000
Si       2.68998401       2.66825315      -0.00926604       0.00000000
Si      -0.01086543       2.73424395       2.70223571       0.00000000
Si      -2.71029764       0.02945232       2.73427007       0.00000000
