10
Lattice="16.290000149 0.0 0.0 0.0 16.290000149 0.0 0.0 0.0 29.1751946751" Properties=species:S:1:pos:R:3:initial_magmoms:R:1 pbc="T T T"
Si       1.32229189       1.33705063       1.39435549       0.00000000
Si      -1.38050909       1.34374582      -1.35962534       0.00000000
Si      -1.36843006      -1.36278883       1.36092072       0.00000000
Si       1.42260571      -1.37365426      -1.29425540       0.00000000
Si       0.23501583       2.42075918      -2.73224239       0.00000000
Si       0.03826521      -2.65725740      -2.66533492       0.00000000
Si       2.71401176       2.63827955       0.02409871       0.00000000
Si       2.62378145      -2.77329108       0.14920195       0.00000000
Si      -2.86177836      -0.04533507      -2.55254274       0.00000000
Si       2.67638186      -0.02893104       2.74866803       0.00000000
