10
Lattice="16.290000149 0.0 0.0 0.0 16.290000149 0.0 0.0 0.0 29.1751946751" Properties=species:S:1:pos:R:3:initial_magmoms:R:1 pbc="T T T"
H       -0.55276858       1.55546695      -0.20203822       0.00000000
Si      -1.61552493      -1.07701336       1.37261705       0.00000000
Si       1.12102894       1.57724668       1.41941698       0.00000000
Si       0.91890262      -1.11418714      -1.98309633       0.00000000
Si      -1.54961884       1.63942562      -1.49219451       0.00000000
Si      -1.13546188      -2.15041034      -2.65602220       0.00000000
Si      -0.23501583      -2.42075918       2.73224239       0.00000000
Si      -2.55619913      -0.21668958      -2.64712376       0.00000000
Si       2.47899593       0.21752037       2.75634110       0.00000000
Si       2.30896091       0.63394165      -2.85353827       0.00000000
