10
Lattice="16.290000149 0.0 0.0 0.0 16.290000149 0.0 0.0 0.0 29.1751946751" Properties=species:S:1:pos:R:3:initial_magmoms:R:1 pbc="T T T"
Si       1.35755486      -1.24600582       1.45442547       0.00000000
Si      -1.16981277       1.59105669       1.28779309       0.00000000
Si       1.31624342       1.42742755      -1.34623101       0.00000000
Si      -1.46180434      -1.37842723      -1.35404996       0.00000000
Si      -0.52506906       2.60129637      -2.27869940       0.00000000
Si       2.81029707      -2.42807339       0.10024597       0.00000000
Si      -1.45374079       3.41710446      -0.28194908       0.00000000
Si      -0.00375159      -2.57512322      -2.71040476       0.00000000
Si      -2.64475157       0.28025316       2.66076900       0.00000000
Si       0.01549994      -2.70822881       2.68779398       0.00000000
