10
Lattice="16.290000149 0.0 0.0 0.0 16.290000149 0.0 0.0 0.0 29.1751946751" Properties=species:S:1:pos:R:3:initial_magmoms:R:1 pbc="T T T"
Si      -1.48126926      -1.38908089      -1.19291740       0.00000000
Si       1.38050909      -1.34374582       1.35962534       0.00000000
Si      -1.38823707       1.36280512       1.35112077       0.00000000
Si       1.61552493       1.07701336      -1.37261705       0.00000000
H        1.06275635       2.63248031      -1.57465528       0.00000000
Si      -2.62155298       0.10927332      -2.57098818       0.00000000
Si      -0.21312696      -2.81689941      -2.51377562       0.00000000
Si       2.73655387       2.65426004       0.04679993       0.00000000
Si       0.01207904      -2.70653465       2.72054606       0.00000000
Si      -0.04360181       2.70987410       2.72512656       0.00000000
