10
Lattice="16.290000149 0.0 0.0 0.0 16.290000149 0.0 0.0 0.0 29.1751946751" Properties=species:S:1:pos:R:3:initial_magmoms:R:1 pbc="T T T"
Si      -1.26814230       1.42781851       1.32085822       0.00000000
Si       1.63190126      -1.18410382       1.20806604       0.00000000
Si       0.69319001       1.74350243      -1.51486363       0.00000000
Si      -1.33605531      -1.97542316      -0.49250646       0.00000000
Si       0.29468122      -2.58941444       2.56001830       0.00000000
Si       0.16120747       0.85454083      -3.61098467       0.00000000
Si      -2.58856084       0.10217088       2.68558834       0.00000000
Si      -0.40738358      -2.79123125      -2.48925678       0.00000000
Si       0.21312696       2.81689941       2.51377562       0.00000000
Si      -2.40842602       2.92617273      -0.05721256       0.00000000
