10
Lattice="16.290000149 0.0 0.0 0.0 16.290000149 0.0 0.0 0.0 29.1751946751" Properties=species:S:1:pos:R:3:initial_magmoms:R:1 pbc="T T T"
Si      -0.84471796      -0.93385684      -0.81004928       0.00000000
H        1.43827669       0.91119745       0.54858119       0.00000000
H        0.80826094      -0.74657071       1.65370838       0.00000000
Si       2.08451729       1.73780093      -0.52824607       0.00000000
Si      -1.09556767       2.75001267      -0.05905059       0.00000000
Si      -0.80883109       1.86417875       2.18210034       0.00000000
Si      -2.13985442       0.35987868      -2.23686218       0.00000000
Si       0.58450150      -2.37786761      -1.93154376       0.00000000
Si      -2.67657734      -1.75912454       0.35322408       0.00000000
Si       1.99363538      -1.25975458       2.45287532       0.00000000
