10
Lattice="16.290000149 0.0 0.0 0.0 16.290000149 0.0 0.0 0.0 29.1751946751" Properties=species:S:1:pos:R:3:initial_magmoms:R:1 pbc="T T T"
Si       0.27447184      -0.82702702      -2.15064948       0.00000000
Si      -2.26895104       0.48050613      -0.11401666       0.00000000
Si       1.28567360       1.98510919       0.11964747       0.00000000
Si       1.03073510      -1.54074079       1.47740268       0.00000000
Si      -2.54692360       1.21950688       2.09259084       0.00000000
Si       3.35368912       1.25816794       0.96494039       0.00000000
Si       2.57180169      -0.23638419       2.67682411       0.00000000
Si       1.19521523       0.90477919      -3.42834795       0.00000000
Si       1.92574029      -2.48158604      -2.05291257       0.00000000
Si       2.38552554      -2.90528895       0.15990924       0.00000000
