10
Lattice="16.290000149 0.0 0.0 0.0 16.290000149 0.0 0.0 0.0 29.1751946751" Properties=species:S:1:pos:R:3:initial_magmoms:R:1 pbc="T T T"
Si      -1.48564964       1.07297344       1.43031392       0.00000000
Si      -1.42088060      -1.43791831      -1.16791222       0.00000000
Si       1.56250261      -1.07973379       1.36361942       0.00000000
Si       1.31210901       1.48849876      -1.27157168       0.00000000
H       -2.51929902      -0.03435561       1.64139645       0.00000000
Si       1.98524440       0.73500481       2.84662374       0.00000000
Si      -0.32275540       0.91237033       3.45300099       0.00000000
Si       0.01404361      -2.68237658      -2.53733751       0.00000000
Si      -2.71194456      -0.02415807      -2.52695114       0.00000000
Si       2.81707697       0.15459210      -2.52029919       0.00000000
