10
Lattice="16.290000149 0.0 0.0 0.0 16.290000149 0.0 0.0 0.0 29.1751946751" Properties=species:S:1:pos:R:3:initial_magmoms:R:1 pbc="T T T"
Si      -1.41651162       1.22386771      -1.37776939       0.00000000
Si      -1.31210901      -1.48849876       1.27157168       0.00000000
Si       1.50496795      -1.33390666      -1.24872751       0.00000000
Si       0.66472975       1.87825331       1.29494102       0.00000000
Si       0.04895145       2.60568326      -2.59349976       0.00000000
Si       0.25039359      -2.56823255       2.63519111       0.00000000
Si      -2.75791332       2.52532469       0.04586341       0.00000000
Si       0.06973749      -2.74326861      -2.56560827       0.00000000
Si      -2.70462872      -0.18604809      -2.69669242       0.00000000
Si      -0.98653870       3.53281233       1.19720411       0.00000000
