10
Lattice="16.290000149 0.0 0.0 0.0 16.290000149 0.0 0.0 0.0 29.1751946751" Properties=species:S:1:pos:R:3:initial_magmoms:R:1 pbc="T T T"
H       -0.88413976       0.85100590      -0.88823880       0.00000000
Si       1.02868093      -1.48623445      -1.47410589       0.00000000
Si      -1.39411450      -1.23167062       1.42789238       0.00000000
Si       1.89684020       1.30398193       0.63140956       0.00000000
Si       1.94844692       0.34841052      -2.64181388       0.00000000
Si       0.01787013       1.84135646      -2.95810216       0.00000000
H       -2.77436622       0.42676542      -2.12716344       0.00000000
Si       2.14808087       0.79074919       2.93169511       0.00000000
Si       0.00329058      -2.65658951       2.65284210       0.00000000
Si       2.52610661      -2.79792156      -0.17977755       0.00000000
