10
Lattice="16.290000149 0.0 0.0 0.0 16.290000149 0.0 0.0 0.0 29.1751946751" Properties=species:S:1:pos:R:3:initial_magmoms:R:1 pbc="T T T"
Si      -1.32672277      -1.38950443      -1.34776271       0.00000000
Si       1.35031069       1.34933329      -1.36900225       0.00000000
Si       1.34465806      -1.32361138       1.40008842       0.00000000
Si      -1.37986075       1.37331217       1.33275207       0.00000000
Si       2.65479761       2.64484442       0.10613936       0.00000000
Si      -2.68468976      -0.02977812      -2.68468683       0.00000000
Si       2.75362905      -2.65281023       0.08586260       0.00000000
Si      -2.71844264      -2.69073335       0.02249408       0.00000000
Si      -0.02505402       2.75838573      -2.67504151       0.00000000
Si       0.07157826      -2.75294487      -2.68068982       0.00000000
