10
Lattice="16.290000149 0.0 0.0 0.0 16.290000149 0.0 0.0 0.0 29.1751946751" Properties=species:S:1:pos:R:3:initial_magmoms:R:1 pbc="T T T"
Si      -1.56250261       1.07973379      -1.36361942       0.00000000
Si       1.38675142      -1.47579256      -1.21587624       0.00000000
Si      -0.84616777      -1.48216195       1.63713687       0.00000000
Si       0.42274179       1.81473860       1.48300432       0.00000000
H        0.34966485      -1.11651661       2.52925598       0.00000000
Si      -1.88525801       1.99210412       2.08938157       0.00000000
Si      -0.25039359       2.56823255      -2.63519111       0.00000000
Si      -3.04815225       2.15270723       0.06669450       0.00000000
Si       2.70132185      -0.11795589      -2.60082273       0.00000000
Si      -0.11790702      -2.81650845      -2.51741085       0.00000000
