10
Lattice="16.290000149 0.0 0.0 0.0 16.290000149 0.0 0.0 0.0 29.1751946751" Properties=species:S:1:pos:R:3:initial_magmoms:R:1 pbc="T T T"
Si       1.34239864       1.36098064       1.35402078       0.00000000
Si      -1.33617097       1.37541358      -1.35326223       0.00000000
Si       1.36547668      -1.35140212      -1.34949863       0.00000000
Si      -1.35384562      -1.34794864       1.37374322       0.00000000
Si      -2.69488730       0.00988803      -2.68435131       0.00000000
Si       2.67146228       0.00192222       2.71953660       0.00000000
Si      -0.00456120      -2.72025083      -2.67489855       0.00000000
Si      -2.68221368       2.72310158       0.01438337       0.00000000
Si       2.69392619      -2.71174745       0.02491562       0.00000000
Si       2.69298137       2.72647361      -0.00980287       0.00000000
