10
Lattice="16.290000149 0.0 0.0 0.0 16.290000149 0.0 0.0 0.0 29.1751946751" Properties=species:S:1:pos:R:3:initial_magmoms:R:1 pbc="T T T"
Si      -0.97430491       1.45350784       1.51226704       0.00000000
Si       1.56546901      -1.28321218       1.12222386       0.00000000
Si       1.61637526       1.02623743      -1.39591636       0.00000000
Si      -1.89496685      -1.49871259      -0.32606198       0.00000000
H       -0.38196792      -2.35243892      -2.02738428       0.00000000
H        0.76484809      -0.72180991      -3.15141700       0.00000000
H       -2.49719186      -1.59106060      -1.72550854       0.00000000
Si       0.17485686      -2.71901279       2.29885946       0.00000000
Si      -2.65662209       2.38746242       0.19407340       0.00000000
H       -2.11429541       2.64456749      -1.19002702       0.00000000
