10
Lattice="16.290000149 0.0 0.0 0.0 16.290000149 0.0 0.0 0.0 29.1751946751" Properties=species:S:1:pos:R:3:initial_magmoms:R:1 pbc="T T T"
Si       1.27825025      -1.37319326       1.38705878       0.00000000
Si      -1.34680851      -1.21205648      -1.48278259       0.00000000
Si      -1.43153133       1.30846657       1.35186474       0.00000000
Si       1.33722005       1.40531062      -1.35195226       0.00000000
Si      -1.63073653       0.61399128      -3.05252476       0.00000000
Si      -0.29468122       2.58941444      -2.56001830       0.00000000
Si       2.60583639      -2.68821981      -0.03404745       0.00000000
Si      -2.82174731      -2.52286002      -0.10980668       0.00000000
Si      -0.06947522       2.69977919       2.67430337       0.00000000
Si       2.57978868      -0.04406119       2.81049318       0.00000000
