10
Lattice="16.290000149 0.0 0.0 0.0 16.290000149 0.0 0.0 0.0 29.1751946751" Properties=species:S:1:pos:R:3:initial_magmoms:R:1 pbc="T T T"
H        1.22583880      -1.95923090       0.22491158       0.00000000
H       -1.98216722      -0.62203366      -1.08385848       0.00000000
Si       1.87722704       0.70371172       1.27866126       0.00000000
Si      -0.76087333      -1.87242149       1.28009084       0.00000000
Si       0.63089542      -0.33300018      -2.32905579       0.00000000
Si      -1.78219118       1.54768033       0.62834617       0.00000000
H       -2.63371835      -0.20036700      -1.12715447       0.00000000
H        2.84736171       0.44953884      -1.20257235       0.00000000
H        2.32929083       1.98791759       0.61623846       0.00000000
H       -0.43469865       2.16290477      -2.21652707       0.00000000
