10
Lattice="16.290000149 0.0 0.0 0.0 16.290000149 0.0 0.0 0.0 29.1751946751" Properties=species:S:1:pos:R:3:initial_magmoms:R:1 pbc="T T T"
Si      -1.34796005       1.33576372      -1.37558125       0.00000000
Si       1.31271337       1.46751724       1.27971156       0.00000000
Si      -1.40959163      -1.29514624       1.38806824       0.00000000
Si       1.41882643      -1.35526122      -1.33607804       0.00000000
H        2.21912156       0.56785312       2.08760188       0.00000000
H        0.20448837       0.22242366       3.49938955       0.00000000
Si      -0.02946861      -2.74595646       2.54486471       0.00000000
Si      -2.64104683      -2.65666347      -0.05633730       0.00000000
Si      -2.61989482       2.69685839       0.04711794       0.00000000
Si       0.07511319      -2.70163136      -2.72449638       0.00000000
