10
Lattice="16.290000149 0.0 0.0 0.0 16.290000149 0.0 0.0 0.0 29.1751946751" Properties=species:S:1:pos:R:3:initial_magmoms:R:1 pbc="T T T"
Si      -0.65140453       0.42402870      -2.13219325       0.00000000
Si      -1.90669565      -0.79258996       1.12159368       0.00000000
Si       0.85441051       1.93704392       1.04118392       0.00000000
Si       1.70649155      -1.66715120      -0.12630204       0.00000000
H       -1.21150360      -2.61501743      -0.79993716       0.00000000
Si       2.17256474       0.67500874       2.51254443       0.00000000
Si      -0.65609605      -2.16064046       2.53581164       0.00000000
Si       3.43130934      -0.72718561       1.15005700       0.00000000
Si       0.84220930      -3.39580040       1.25597463       0.00000000
Si      -2.35108685       2.02269674      -2.14949414       0.00000000
