10
Lattice="16.290000149 0.0 0.0 0.0 16.290000149 0.0 0.0 0.0 29.1751946751" Properties=species:S:1:pos:R:3:initial_magmoms:R:1 pbc="T T T"
Si      -1.02868093       1.48623445       1.47410589       0.00000000
Si       0.91976599       1.83464498      -1.16770799       0.00000000
Si      -1.33682257      -1.45779211      -1.29117742       0.00000000
Si       1.49742568      -1.31168710       1.29432834       0.00000000
H       -1.91282069       2.33724035       0.58586708       0.00000000
H        2.77465944      -1.01755486      -1.30328512       0.00000000
Si       2.32259564      -2.30176073      -0.64086233       0.00000000
Si       0.44536860      -3.00547245      -1.91952358       0.00000000
Si       0.86815927       2.79021639       2.10551545       0.00000000
Si       2.47899593       2.61941573       0.42473248       0.00000000
