10
Lattice="16.290000149 0.0 0.0 0.0 16.290000149 0.0 0.0 0.0 29.1751946751" Properties=species:S:1:pos:R:3:initial_magmoms:R:1 pbc="T T T"
Si      -1.34936261      -1.41061627       1.30512316       0.00000000
Si       1.33854768      -1.36296802      -1.37278043       0.00000000
Si      -1.43879472       1.34962651      -1.28668444       0.00000000
Si       1.37958056       1.35972631       1.35690913       0.00000000
Si      -2.58691393      -0.04452057       2.72300844       0.00000000
Si      -0.06015571       2.67667508      -2.67600721       0.00000000
Si       0.00029850       2.75515151       2.65497189       0.00000000
Si       2.70891625      -2.70544322      -0.01598801       0.00000000
Si       2.69875129      -0.01275507      -2.72618854       0.00000000
Si       2.71645852       2.71018361      -0.01318719       0.00000000
