10
Lattice="16.290000149 0.0 0.0 0.0 16.290000149 0.0 0.0 0.0 29.1751946751" Properties=species:S:1:pos:R:3:initial_magmoms:R:1 pbc="T T T"
Si      -1.35922132       1.35596169       1.34167968       0.00000000
Si       1.34827444       1.37358747      -1.33753680       0.00000000
Si       1.38259747      -1.35919037       1.32219065       0.00000000
Si      -1.35602848      -1.37051192      -1.33890803       0.00000000
Si       2.67854843      -0.04601762      -2.62366691       0.00000000
Si       0.00588069      -2.71399710       2.65535117       0.00000000
Si      -2.72605007      -0.00928856      -2.65287128       0.00000000
Si       0.01347183       2.70436646       2.68403038       0.00000000
Si       2.73241947       0.01075792       2.67346896       0.00000000
Si      -2.70472646       0.00198575       2.70667034       0.00000000
