10
Lattice="16.290000149 0.0 0.0 0.0 16.290000149 0.0 0.0 0.0 29.1751946751" Properties=species:S:1:pos:R:3:initial_magmoms:R:1 pbc="T T T"
Si       1.34135119       1.33283152      -1.37295549       0.00000000
Si      -1.43865136       1.37075464       1.23209765       0.00000000
Si       1.34208424      -1.34687350       1.38325433       0.00000000
Si      -1.38313504      -1.35035956      -1.34025009       0.00000000
Si      -0.15965829      -2.70813107       2.54436873       0.00000000
Si       2.70093089       2.64103256       0.01660069       0.00000000
Si      -0.01295055      -2.73774630      -2.65088736       0.00000000
Si      -2.81455365       0.05149269       2.58868585       0.00000000
Si       2.71459820      -0.02625948      -2.69392078       0.00000000
Si      -0.01552437       2.66753639      -2.75002467       0.00000000
