10
Lattice="16.290000149 0.0 0.0 0.0 16.290000149 0.0 0.0 0.0 29.1751946751" Properties=species:S:1:pos:R:3:initial_magmoms:R:1 pbc="T T T"
Si       1.32041854       1.32564763      -1.36473012       0.00000000
Si      -1.25874460       1.40219434       1.36248743       0.00000000
Si      -1.72481780      -0.93996559      -1.27635904       0.00000000
Si       1.45171073      -1.38311875       1.22629470       0.00000000
Si      -3.43130934       0.72718561      -1.15005700       0.00000000
Si      -2.57689883       2.66422952      -0.10887307       0.00000000
Si      -2.58910004      -2.66861479       0.10591763       0.00000000
Si       2.58856084      -0.10217088      -2.68558834       0.00000000
Si      -2.66857895      -0.00302994       2.62100029       0.00000000
Si       2.81376684       0.00819387       2.54873334       0.00000000
