10
Lattice="16.290000149 0.0 0.0 0.0 16.290000149 0.0 0.0 0.0 29.1751946751" Properties=species:S:1:pos:R:3:initial_magmoms:R:1 pbc="T T T"
Si      -1.36205611      -1.39131262      -1.32243864       0.00000000
Si       1.29318655      -1.35294967       1.43010969       0.00000000
Si      -1.35209608       1.33019254       1.40201398       0.00000000
Si       1.36843006       1.36278883      -1.36092072       0.00000000
Si      -2.66241645      -2.68256066       0.14809329       0.00000000
Si      -2.81376684      -0.00819387      -2.54873334       0.00000000
Si       0.06947522      -2.69977919      -2.67430337       0.00000000
Si       2.69072195       2.69983946       0.03343477       0.00000000
Si       2.64926390      -2.74384038       0.13618981       0.00000000
Si      -0.01207904       2.70653465      -2.72054606       0.00000000
