10
Lattice="16.290000149 0.0 0.0 0.0 16.290000149 0.0 0.0 0.0 29.1751946751" Properties=species:S:1:pos:R:3:initial_magmoms:R:1 pbc="T T T"
H       -1.44098083       0.28821897       0.44305451       0.00000000
Si       0.44486361      -2.13465791       0.88882231       0.00000000
Si      -0.35929224       0.23483664      -2.36170283       0.00000000
Si       1.22396545       1.58157982       1.42106538       0.00000000
H        0.18054207       2.69698871      -0.98442942       0.00000000
H        1.52794011      -1.40258530      -2.10175185       0.00000000
H        0.37532160      -3.20855988      -0.17353406       0.00000000
Si      -0.78959260       2.95116159       1.49680419       0.00000000
Si       3.41617593       0.16944858       0.37493043       0.00000000
Si      -2.66681963       2.24744987       0.21814293       0.00000000
