10
Lattice="16.290000149 0.0 0.0 0.0 16.290000149 0.0 0.0 0.0 29.1751946751" Properties=species:S:1:pos:R:3:initial_magmoms:R:1 pbc="T T T"
Si      -1.34622190       1.34503273      -1.36516571       0.00000000
Si      -1.35558865      -1.37049400       1.34655193       0.00000000
Si       1.35640315       1.34791606       1.36837498       0.00000000
Si       1.34359921      -1.30308598      -1.42436218       0.00000000
Si      -2.77068468      -0.11267793      -2.58916140       0.00000000
Si       0.11538207       2.77967171      -2.58087565       0.00000000
Si      -2.70089831       2.67356369       0.03594384       0.00000000
Si       2.68980482      -2.68628618      -0.05861297       0.00000000
Si       0.00602730      -2.71016732       2.71192187       0.00000000
Si      -2.71103069      -0.01809819       2.71262208       0.00000000
