10
Lattice="16.290000149 0.0 0.0 0.0 16.290000149 0.0 0.0 0.0 29.1751946751" Properties=species:S:1:pos:R:3:initial_magmoms:R:1 pbc="T T T"
H        0.65155114      -0.42166665       0.04329599       0.00000000
H       -1.14681601      -1.63062901       1.12403273       0.00000000
Si      -1.86839786      -1.70960294      -0.19938328       0.00000000
Si       0.85152718       1.74804734       1.75550064       0.00000000
Si      -0.08485461       0.82608220      -2.57269784       0.00000000
Si      -2.21025980       0.24145038      -1.57052990       0.00000000
Si       2.63371835       0.20036700       1.12715447       0.00000000
Si       1.40235724      -0.97376734      -2.45520933       0.00000000
Si      -0.25829424      -2.49803894      -1.72276607       0.00000000
Si      -0.37304100       3.07138179       0.24130804       0.00000000
