10
Lattice="16.290000149 0.0 0.0 0.0 16.290000149 0.0 0.0 0.0 29.1751946751" Properties=species:S:1:pos:R:3:initial_magmoms:R:1 pbc="T T T"
Si       1.36376623       1.34996860      -1.34952780       0.00000000
Si       1.37354023      -1.35216775       1.34500565       0.00000000
Si      -1.35174421       1.36143676       1.36067273       0.00000000
Si      -1.36945144      -1.36150192      -1.35232862       0.00000000
Si      -0.02625948       2.69827562      -2.68198812       0.00000000
Si      -0.00289962      -2.67234194       2.70839167       0.00000000
Si       2.66449016      -2.71977842      -0.06730717       0.00000000
Si       2.68434767      -0.01770723      -2.73330729       0.00000000
Si       2.72544734       2.69267512       0.02774561       0.00000000
Si      -2.68862217       0.01097946       2.73076905       0.00000000
