10
Lattice="16.290000149 0.0 0.0 0.0 16.290000149 0.0 0.0 0.0 29.1751946751" Properties=species:S:1:pos:R:3:initial_magmoms:R:1 pbc="T T T"
Si       0.61292755      -1.30580478       0.44025369       0.00000000
Si      -1.51469145       1.46890189       0.63143874       0.00000000
H        2.01463319       0.34542945      -1.41178767       0.00000000
Si       1.10822500       1.24509358      -2.21967799       0.00000000
Si      -0.03567510       2.67226049      -0.75625022       0.00000000
Si      -2.83151316      -0.23190444      -0.50557695       0.00000000
Si      -1.61408000      -1.51756990      -2.11132131       0.00000000
Si      -0.22442733       1.62381979       2.65678075       0.00000000
Si      -0.23395698      -2.96838012      -0.95452484       0.00000000
Si       2.92053639      -1.22043052       0.08244910       0.00000000
