10
Lattice="16.290000149 0.0 0.0 0.0 16.290000149 0.0 0.0 0.0 29.1751946751" Properties=species:S:1:pos:R:3:initial_magmoms:R:1 pbc="T T T"
Si       1.32004876      -1.33618726      -1.40738222       0.00000000
Si       1.39134520       1.37556019       1.31177510       0.00000000
Si      -1.33960816       1.36596538      -1.37526033       0.00000000
Si      -1.35602848      -1.34698753       1.39323225       0.00000000
Si      -0.01316232       2.69384474       2.62547577       0.00000000
Si       2.64911240      -2.69524568      -0.04186640       0.00000000
Si      -2.69975801      -2.67418271      -0.01414997       0.00000000
Si      -2.72354141       2.70954830      -0.03985332       0.00000000
Si       2.67063149       0.02930571      -2.77120587       0.00000000
Si       0.03524488      -2.70267392       2.74392706       0.00000000
