10
Lattice="10.86 0.0 0.0 0.0 10.86 0.0 0.0 0.0 10.86" Properties=species:S:1:pos:R:3:initial_magmoms:R:1 pbc="T T T"
Si       1.18633554      -1.05677574      -1.46770728       0.00000000
Si      -1.52866446      -1.05677574       1.24729272       0.00000000
Si       1.35799956       1.31168166       1.44739908       0.00000000
Si      -1.52866446       1.65822426      -1.46770728       0.00000000
Si       2.56099434      -2.28272856      -0.05300766       0.00000000
Si      -0.39421800      -2.27346498       2.67198354       0.00000000
Si       1.10654712      -0.43242348       3.32534286       0.00000000
Si       2.44255518       2.70902700      -0.17901624       0.00000000
Si      -0.17116446      -2.41427574      -2.82520728       0.00000000
Si      -2.88616446      -2.41427574      -0.11020728       0.00000000
