10
Lattice="10.86 0.0 0.0 0.0 10.86 0.0 0.0 0.0 10.86" Properties=species:S:1:pos:R:3:initial_magmoms:R:1 pbc="T T T"
Si       1.45878036      -1.05080274      -1.28869104       0.00000000
Si      -1.08455562      -1.39734534       1.62641532       0.00000000
Si      -1.25621964       1.66419726      -1.28869104       0.00000000
Si       1.45878036       1.66419726       1.42630896       0.00000000
Si       0.10128036      -2.40830274      -2.64619104       0.00000000
Si      -2.44255518      -2.70902700       0.17901624       0.00000000
Si       2.64836304      -2.51533890       0.37327992       0.00000000
Si      -2.61371964       0.30669726      -2.64619104       0.00000000
Si       2.81628036       0.30669726      -2.64619104       0.00000000
Si      -2.61651066       0.20462412       2.89312572       0.00000000
