10
Lattice="10.86 0.0 0.0 0.0 10.86 0.0 0.0 0.0 10.86" Properties=species:S:1:pos:R:3:initial_magmoms:R:1 pbc="T T T"
Si      -1.35750000      -1.35750000       1.35750000       0.00000000
Si       1.35750000      -1.35750000      -1.35750000       0.00000000
Si       1.35750000       1.35750000       1.35750000       0.00000000
Si      -1.35750000       1.35750000      -1.35750000       0.00000000
Si      -2.58901314      -0.00508248      -2.59737534       0.00000000
Si      -2.35275384      -2.83578492       0.32784168       0.00000000
Si       2.71220898      -0.10207314      -2.60568324       0.00000000
Si       0.00000000      -2.71500000       2.71500000       0.00000000
Si       2.71500000       0.00000000       2.71500000       0.00000000
Si       0.00000000       2.71500000      -2.71500000       0.00000000
