10
Lattice="10.86 0.0 0.0 0.0 10.86 0.0 0.0 0.0 10.86" Properties=species:S:1:pos:R:3:initial_magmoms:R:1 pbc="T T T"
Si      -1.37465880       1.22595282      -1.41469962       0.00000000
Si      -1.37465880      -1.48904718       1.30030038       0.00000000
Si       1.34034120      -1.48904718      -1.41469962       0.00000000
Si      -2.56099434       2.28272856       0.05300766       0.00000000
Si       2.52992388       2.47641666       0.24727134       0.00000000
Si      -0.01715880       2.58345282      -2.77219962       0.00000000
Si       2.69784120      -0.13154718      -2.77219962       0.00000000
Si      -0.01715880      -2.84654718       2.65780038       0.00000000
Si      -2.73215880      -0.13154718      -2.77219962       0.00000000
Si       2.69784120      -2.84654718      -0.05719962       0.00000000
