10
Lattice="16.28999089631971 0.0 0.0 0.0 16.28999089631971 0.0 0.0 0.0 34.53561885213415" Properties=species:S:1:pos:R:3:initial_magmoms:R:1 pbc="T T T"
Si       0.29263356       0.62692065       2.21798229       0.00000000
Si      -0.51163632      -2.10672773      -0.89785752       0.00000000
Si      -1.77995943       1.48884084      -0.34874087       0.00000000
Si       1.86263118       0.65270772      -1.29104576       0.00000000
Si      -3.10340790       0.50932314       1.35676708       0.00000000
Si      -1.66785165      -1.26972731      -2.76426701       0.00000000
Si       1.03966038       2.82680370       1.74201212       0.00000000
Si      -0.42381693       3.46527396      -0.03267071       0.00000000
Si      -2.65913073       0.82815102      -2.41701117       0.00000000
Si       1.48887342      -3.08336210      -1.53196637       0.00000000
