10
Lattice="16.28999089631971 0.0 0.0 0.0 16.28999089631971 0.0 0.0 0.0 34.53561885213415" Properties=species:S:1:pos:R:3:initial_magmoms:R:1 pbc="T T T"
Si       1.35643572       1.35501849      -1.35745779       0.00000000
Si      -1.35780408       1.35755973       1.35745779       0.00000000
Si       1.35767376      -1.35819504       1.35697429       0.00000000
Si      -1.35881406      -1.35913986      -1.35721604       0.00000000
Si       0.00128691      -2.71182725      -2.71481198       0.00000000
Si       0.00078192      -2.71413229       2.71429394       0.00000000
Si      -2.71068043       0.00110772      -2.71816194       0.00000000
Si       2.71679733      -0.00270414      -2.71273984       0.00000000
Si       2.71515204      -2.71480832       0.00000000       0.00000000
Si       2.71482624       2.71516833      -0.00037989       0.00000000
