10
Lattice="16.28999089631971 0.0 0.0 0.0 16.28999089631971 0.0 0.0 0.0 34.53561885213415" Properties=species:S:1:pos:R:3:initial_magmoms:R:1 pbc="T T T"
Si       1.35788553       1.35407367      -1.37821371       0.00000000
Si      -1.35874890      -1.36409202      -1.37904257       0.00000000
Si      -1.38054492       1.27526265       1.48102631       0.00000000
Si       1.42263828      -1.36498797       1.40301030       0.00000000
Si      -2.70339229      -2.70361220       0.00075978       0.00000000
Si       2.69268813       2.72588715      -0.00148503       0.00000000
Si      -2.72979023       2.69576694       0.00908287       0.00000000
Si       2.71844262      -2.72220072      -0.01581732       0.00000000
Si      -0.00242721       2.71221984      -2.73587872       0.00000000
Si       2.71378368      -0.00337203      -2.73801993       0.00000000
