10
Lattice="16.28999089631971 0.0 0.0 0.0 16.28999089631971 0.0 0.0 0.0 34.53561885213415" Properties=species:S:1:pos:R:3:initial_magmoms:R:1 pbc="T T T"
Si      -1.38992796       0.18451683       1.88847777       0.00000000
Si       1.18939806      -2.15642133       0.19447018       0.00000000
Si      -1.86466743       0.18352314      -1.61726940       0.00000000
Si       1.42645014       2.06410590      -1.57365089       0.00000000
Si      -0.19875429       1.18346850      -3.04093201       0.00000000
Si       0.65081808       2.53760733       2.03259498       0.00000000
Si      -0.10777464      -0.82492560       3.57067416       0.00000000
Si       3.16472346      -1.49035581       1.25996369       0.00000000
Si      -1.56585996       2.41896726       2.54904092       0.00000000
Si       0.73366902       3.79654740      -0.02389866       0.00000000
