10
Lattice="16.28999089631971 0.0 0.0 0.0 16.28999089631971 0.0 0.0 0.0 34.53561885213415" Properties=species:S:1:pos:R:3:initial_magmoms:R:1 pbc="T T T"
Si       1.34052039       1.75586652       0.77480704       0.00000000
Si       0.56987307      -2.06596296       0.99034396       0.00000000
Si      -2.37588021       0.11924280       0.13952398       0.00000000
Si       0.89661789      -0.54618741      -2.17118650       0.00000000
Si      -0.12577509       3.56913900       0.39560574       0.00000000
Si      -1.07870751      -1.21225293      -3.23668001       0.00000000
Si      -0.93753837      -2.29547277       2.81282412       0.00000000
Si      -3.11070582      -2.11180302      -0.25984614       0.00000000
Si       3.55234401       1.27418751       0.10018789       0.00000000
Si       0.21883986      -3.83491035      -0.55384803       0.00000000
