10
Lattice="16.28999089631971 0.0 0.0 0.0 16.28999089631971 0.0 0.0 0.0 34.53561885213415" Properties=species:S:1:pos:R:3:initial_magmoms:R:1 pbc="T T T"
Si      -1.38784284       1.80203238       0.56137680       0.00000000
Si       1.11252555       0.60095439      -1.99149757       0.00000000
Si       1.46347731      -0.63847026       1.77468284       0.00000000
Si      -1.35614250      -1.97643312      -0.31607016       0.00000000
Si       0.42381693      -3.46527396       0.03267071       0.00000000
Si      -0.62581293       0.79171029      -3.51227440       0.00000000
Si       0.71645049      -2.83835331       2.25065300       0.00000000
Si       1.66395834      -1.42359939      -3.02280080       0.00000000
Si       2.28644811      -2.81256624      -1.25837505       0.00000000
Si       0.58559292       0.14064786       3.83307594       0.00000000
