10
Lattice="16.28999089631971 0.0 0.0 0.0 16.28999089631971 0.0 0.0 0.0 34.53561885213415" Properties=species:S:1:pos:R:3:initial_magmoms:R:1 pbc="T T T"
Si       1.83664863       1.39403304       0.64491851       0.00000000
Si      -0.08285094      -1.25894007       2.05649365       0.00000000
Si       0.69278112      -1.73244150      -1.54975223       0.00000000
Si      -1.79295885       1.38785913      -1.42017451       0.00000000
Si       1.95079266      -0.09832644      -2.91605114       0.00000000
Si       0.66026628       3.55636764       0.84253143       0.00000000
Si      -2.29952898      -1.37758014       2.57293958       0.00000000
Si      -2.85180885       2.32104807       0.57156481       0.00000000
Si       3.39325587       0.96081678      -1.23927684       0.00000000
Si      -0.73366902      -3.79654740       0.02389866       0.00000000
