10
Lattice="16.28999089631971 0.0 0.0 0.0 16.28999089631971 0.0 0.0 0.0 34.53561885213415" Properties=species:S:1:pos:R:3:initial_magmoms:R:1 pbc="T T T"
Si      -2.21667804      -0.11864007       0.51644593       0.00000000
Si       1.49151240       0.08736327       1.79416094       0.00000000
Si       0.08285094       1.25894007      -2.05649365       0.00000000
Si      -2.04074604      -2.35309050      -0.14411722       0.00000000
Si      -0.65081808      -2.53760733      -2.03259498       0.00000000
Si       2.53597833       2.06694036       1.08735457       0.00000000
Si       1.91949957       2.65297311      -1.41157514       0.00000000
Si      -0.03745071       0.00014661       3.66916980       0.00000000
Si      -2.31221889      -0.00309510       2.88258611       0.00000000
Si       0.77563206      -0.47350143      -3.60624587       0.00000000
