10
Lattice="16.28999089631971 0.0 0.0 0.0 16.28999089631971 0.0 0.0 0.0 34.53561885213415" Properties=species:S:1:pos:R:3:initial_magmoms:R:1 pbc="T T T"
Si      -1.04788683      -1.77160266      -1.09108442       0.00000000
Si       0.74937258      -0.15131781       2.23079501       0.00000000
Si       2.02611762       0.37625013      -1.17859772       0.00000000
Si      -1.33131654       2.00331162       0.04475819       0.00000000
Si       0.64115811       3.28543236       0.35333411       0.00000000
Si       1.21303485       2.18821941       2.39742946       0.00000000
Si       1.69994295      -0.98305263      -3.00494588       0.00000000
Si       1.82016315       2.63968047      -1.65349728       0.00000000
Si       0.72223344      -2.91046914      -2.10943678       0.00000000
Si      -2.94034500       1.66662990       1.76608346       0.00000000
