10
Lattice="16.28999089631971 0.0 0.0 0.0 16.28999089631971 0.0 0.0 0.0 34.53561885213415" Properties=species:S:1:pos:R:3:initial_magmoms:R:1 pbc="T T T"
Si      -1.33338537      -1.35897696      -1.36861280       0.00000000
Si       1.42544016      -1.26829053       1.39631039       0.00000000
Si       1.38085443       1.35804102      -1.37134112       0.00000000
Si      -1.34789976       1.35322645       1.52495564       0.00000000
Si       0.54716481       2.15145681       2.82173432       0.00000000
Si       2.35862910       0.36450504       2.84514948       0.00000000
Si      -2.67789844       2.72583569       0.00877205       0.00000000
Si      -2.69154946      -0.00231318      -2.73021487       0.00000000
Si      -2.70239860      -2.72124450       0.02918261       0.00000000
Si       0.02412549       2.71336081      -2.73011127       0.00000000
