10
Lattice="16.28999089631971 0.0 0.0 0.0 16.28999089631971 0.0 0.0 0.0 34.53561885213415" Properties=species:S:1:pos:R:3:initial_magmoms:R:1 pbc="T T T"
Si      -1.73066100      -0.97564882       1.30825591       0.00000000
Si       1.07316891       1.90408923       1.06355019       0.00000000
Si       1.91809863      -1.51533652      -0.12683597       0.00000000
Si      -1.40746414      -0.91906225      -1.92465769       0.00000000
Si      -0.27192897      -2.13334469       2.64653261       0.00000000
Si       2.44069812       0.59883669       2.59616238       0.00000000
Si       1.07178426      -3.35766941       1.19346635       0.00000000
Si       2.49689862      -1.54729913      -2.45547044       0.00000000
Si      -2.13529972      -3.07691126      -0.96549941       0.00000000
Si       0.26200836      -1.30108067      -3.66148946       0.00000000
