10
Lattice="16.28999089631971 0.0 0.0 0.0 16.28999089631971 0.0 0.0 0.0 34.53561885213415" Properties=species:S:1:pos:R:3:initial_magmoms:R:1 pbc="T T T"
Si      -1.42452792       1.24282926      -1.28874914       0.00000000
Si      -1.37684709      -1.32144480       1.35130354       0.00000000
Si       1.34346888       1.39030263       1.35420454       0.00000000
Si       1.34716671      -1.36552391      -1.53619353       0.00000000
Si       0.25570413       2.17078911      -2.55864044       0.00000000
Si       2.25326538       0.45590823      -2.68703075       0.00000000
Si      -2.36745828      -0.52471719      -2.59982523       0.00000000
Si       2.71616202      -2.66729982      -0.03463925       0.00000000
Si      -0.02037879      -2.68089592       2.70948658       0.00000000
Si       2.69653257       0.03407868       2.71124790       0.00000000
