10
Lattice="16.28999089631971 0.0 0.0 0.0 16.28999089631971 0.0 0.0 0.0 34.53561885213415" Properties=species:S:1:pos:R:3:initial_magmoms:R:1 pbc="T T T"
Si      -1.40077710       1.27133676      -1.46165181       0.00000000
Si       0.70770276       1.73205054       1.50043534       0.00000000
Si       1.30689783      -1.44703907      -1.44131032       0.00000000
Si      -1.78046442      -0.96775632       1.47674389       0.00000000
Si       2.44302759       2.51656065      -0.06900221       0.00000000
Si      -2.69972541       2.67998193      -0.08164225       0.00000000
Si      -3.52813707       0.83658924       1.18671360       0.00000000
Si      -0.80615952       3.57604596       1.13656785       0.00000000
Si      -0.04983111       2.62501947      -2.82377192       0.00000000
Si       2.66971923      -0.09350460      -2.81658851       0.00000000
