10
Lattice="16.28999089631971 0.0 0.0 0.0 16.28999089631971 0.0 0.0 0.0 34.53561885213415" Properties=species:S:1:pos:R:3:initial_magmoms:R:1 pbc="T T T"
Si      -0.09143577       0.40843917      -2.28898756       0.00000000
Si      -1.12047507       1.76930577       1.07619956       0.00000000
Si      -0.72870057      -2.19609467       0.50007604       0.00000000
Si       2.31893037      -0.23975622       0.44626952       0.00000000
Si      -0.69887358       0.58661919       3.05595501       0.00000000
Si       1.28674710      -1.65845721      -2.61987351       0.00000000
Si      -1.18918629      -1.64752988       2.69319267       0.00000000
Si       2.66727573      -2.29396499      -0.65116946       0.00000000
Si       3.40840557       1.21896441      -1.06197087       0.00000000
Si      -2.20648050      -0.45938289      -3.04711389       0.00000000
