10
Lattice="16.28999089631971 0.0 0.0 0.0 16.28999089631971 0.0 0.0 0.0 34.53561885213415" Properties=species:S:1:pos:R:3:initial_magmoms:R:1 pbc="T T T"
Si       0.42160149      -1.18268658       1.97975546       0.00000000
Si       1.12047507      -1.76930577      -1.07619956       0.00000000
Si       1.19487150       2.02611762       0.18124303       0.00000000
Si      -2.21894235       0.24731478      -0.79856756       0.00000000
Si       0.21537009       2.88272727       2.21183495       0.00000000
Si       2.68196931      -0.69950889       2.55259809       0.00000000
Si       1.02903930      -1.36086660      -3.36518712       0.00000000
Si      -0.06871122      -3.41683564       1.61699311       0.00000000
Si      -2.56997556      -1.52163261      -2.34275955       0.00000000
Si      -3.72635379       0.01780497       1.02391260       0.00000000
