10
Lattice="16.28999089631971 0.0 0.0 0.0 16.28999089631971 0.0 0.0 0.0 34.53561885213415" Properties=species:S:1:pos:R:3:initial_magmoms:R:1 pbc="T T T"
Si      -0.87917130      -0.66068982      -2.06827030       0.00000000
Si       1.77995943      -1.48884084       0.34874087       0.00000000
Si      -1.32344847      -0.97951770       1.70550795       0.00000000
Si       1.35614250       1.97643312       0.31607016       0.00000000
Si       2.07259299      -0.86192019       2.56672316       0.00000000
Si       0.75033369       0.31385943      -3.48647628       0.00000000
Si       0.11210778      -2.75856815      -2.41552614       0.00000000
Si       2.81961981       1.33796286       2.09075300       0.00000000
Si      -0.09861966      -0.62724645       3.70377451       0.00000000
Si       1.26832311      -3.59556857      -0.54911665       0.00000000
