10
Lattice="16.28999089631971 0.0 0.0 0.0 16.28999089631971 0.0 0.0 0.0 34.53561885213415" Properties=species:S:1:pos:R:3:initial_magmoms:R:1 pbc="T T T"
Si       1.55694933      -0.14933043       1.75171664       0.00000000
Si      -0.72550773       2.23028019       0.40475768       0.00000000
Si       1.53554427      -0.58946994      -1.72173970       0.00000000
Si      -2.14048971      -1.15100253       0.07653097       0.00000000
Si       0.72617562      -2.79124263      -1.94221522       0.00000000
Si       2.69410536       1.91127312       1.45519365       0.00000000
Si      -3.01837410      -0.37188441       2.13492408       0.00000000
Si      -2.60338635       1.89473877       1.94152451       0.00000000
Si       0.40881384      -0.36733950       3.88111502       0.00000000
Si       1.02148074       3.56948109       1.28348246       0.00000000
