10
Lattice="16.28999089631971 0.0 0.0 0.0 16.28999089631971 0.0 0.0 0.0 34.53561885213415" Properties=species:S:1:pos:R:3:initial_magmoms:R:1 pbc="T T T"
Si       1.35679410      -1.35725022      -1.35783769       0.00000000
Si      -1.35718506       1.35723393      -1.35769954       0.00000000
Si       1.35782037       1.35739683       1.35690522       0.00000000
Si      -1.35764118      -1.35720135       1.35794129       0.00000000
Si      -0.00109143       2.71336014      -2.71398312       0.00000000
Si       2.71448415      -0.00086337      -2.71498466       0.00000000
Si       2.71494027       2.71461447      -0.00058711       0.00000000
Si      -2.71518462      -2.71469592      -0.00006907       0.00000000
Si       2.71456560      -2.71539639      -0.00086339       0.00000000
Si      -2.71534752       2.71521720      -0.00048350       0.00000000
