10
Lattice="16.28999089631971 0.0 0.0 0.0 16.28999089631971 0.0 0.0 0.0 34.53561885213415" Properties=species:S:1:pos:R:3:initial_magmoms:R:1 pbc="T T T"
Si       0.35982981      -1.73136636       1.44096497       0.00000000
Si       1.68103026       1.41832143      -0.76247782       0.00000000
Si      -0.67479696      -0.88964577      -2.04371546       0.00000000
Si      -1.15329942       1.88351496       0.99580059       0.00000000
Si      -2.34742158       0.76856220      -2.21542665       0.00000000
Si      -1.95690141      -1.89436410       2.16852726       0.00000000
Si       0.77460579       3.43572390       0.05767452       0.00000000
Si      -3.22263441       1.64338407      -0.16297368       0.00000000
Si      -1.81195299      -2.95024932      -1.74719247       0.00000000
Si       1.77984540      -0.98733690       3.34045960       0.00000000
