10
Lattice="16.28999089631971 0.0 0.0 0.0 16.28999089631971 0.0 0.0 0.0 34.53561885213415" Properties=species:S:1:pos:R:3:initial_magmoms:R:1 pbc="T T T"
Si       1.35601218       1.35828193      -1.35752686       0.00000000
Si       1.35749457      -1.35708732       1.35766501       0.00000000
Si      -1.35853713      -1.35834165      -1.35573101       0.00000000
Si      -1.35816246       1.35858059       1.35759594       0.00000000
Si      -2.70888039      -0.00565263      -2.71667690       0.00000000
Si      -0.00164529      -2.71094922      -2.71543362       0.00000000
Si       2.71498914      -2.71409319       0.00013814       0.00000000
Si      -2.71463076      -2.71446786       0.00055257       0.00000000
Si       0.00037467      -2.71430496       2.71515734       0.00000000
Si      -2.71489140       2.71591020       0.00058711       0.00000000
