10
Lattice="16.28999089631971 0.0 0.0 0.0 16.28999089631971 0.0 0.0 0.0 34.53561885213415" Properties=species:S:1:pos:R:3:initial_magmoms:R:1 pbc="T T T"
Si       1.35782037      -1.35545832      -1.36163661       0.00000000
Si      -1.35876519       1.35878148      -1.36160207       0.00000000
Si      -1.34355033      -1.36282140       1.38746926       0.00000000
Si       1.35619137       1.35591444       1.38905790       0.00000000
Si      -2.71539639      -2.71107954      -0.00089793       0.00000000
Si       0.00000000      -2.71285515      -2.71854183       0.00000000
Si       2.71384884       2.71863930       0.00055257       0.00000000
Si       2.71896390      -2.71393029      -0.00410974       0.00000000
Si       2.71494027       0.00175932      -2.71912893       0.00000000
Si      -2.71534752       0.00236205      -2.71902533       0.00000000
