10
Lattice="16.28999089631971 0.0 0.0 0.0 16.28999089631971 0.0 0.0 0.0 34.53561885213415" Properties=species:S:1:pos:R:3:initial_magmoms:R:1 pbc="T T T"
Si       1.33204959       1.34553737       1.38652989       0.00000000
Si      -1.38038202      -1.37332783       1.38252376       0.00000000
Si      -1.36899531       1.30177591      -1.50155429       0.00000000
Si       1.61903052      -1.18902277      -1.55709105       0.00000000
Si      -0.32645160      -2.33780986      -2.51075402       0.00000000
Si      -2.07943479      -0.54470440      -2.97039784       0.00000000
Si      -2.71616202       2.66729982       0.03463925       0.00000000
Si       2.68925239       2.70044997       0.00875478       0.00000000
Si       2.70140685      -2.71840942       0.00746315       0.00000000
Si       2.69639354      -0.01276598       2.74488561       0.00000000
