10
Lattice="16.28999089631971 0.0 0.0 0.0 16.28999089631971 0.0 0.0 0.0 34.53561885213415" Properties=species:S:1:pos:R:3:initial_magmoms:R:1 pbc="T T T"
Si       0.44833338      -0.24705088      -2.26691929       0.00000000
Si      -0.84367539       2.05494603       0.71671810       0.00000000
Si       2.24379016      -0.75682037       0.43432019       0.00000000
Si      -1.88902098      -0.87672128       1.26369354       0.00000000
Si       0.23263749       2.00070033       2.82159617       0.00000000
Si      -0.50849235      -1.51222906       3.23239759       0.00000000
Si       2.26841412      -2.10337687      -1.99550371       0.00000000
Si       3.56478047       1.33398321       0.12733290       0.00000000
Si      -3.26720385       1.19017509       1.59457948       0.00000000
Si      -1.35250983      -1.31153626      -3.38891310       0.00000000
