10
Lattice="16.28999089631971 0.0 0.0 0.0 16.28999089631971 0.0 0.0 0.0 34.53561885213415" Properties=species:S:1:pos:R:3:initial_magmoms:R:1 pbc="T T T"
Si      -0.80181009       1.73212222      -1.36892363       0.00000000
Si      -0.51841296      -1.87265020      -1.40515151       0.00000000
Si       2.39060637       0.34586765       0.01785492       0.00000000
Si      -1.55334924      -0.27631165       2.05452511       0.00000000
Si       2.56863978       0.94444370      -2.33198443       0.00000000
Si       0.45880785       1.42549555      -3.36390930       0.00000000
Si      -2.23438527      -0.94915381      -2.80353403       0.00000000
Si      -1.32251994      -3.57632356      -0.00221028       0.00000000
Si      -0.34401222       3.80551342      -0.43204083       0.00000000
Si      -2.92960989       1.23988240      -2.17191175       0.00000000
