10
Lattice="16.28999089631971 0.0 0.0 0.0 16.28999089631971 0.0 0.0 0.0 34.53561885213415" Properties=species:S:1:pos:R:3:initial_magmoms:R:1 pbc="T T T"
Si      -1.09271691       1.56489885      -1.40263041       0.00000000
Si      -1.93691358      -0.74904678       1.20228917       0.00000000
Si       1.60668011      -1.18477170      -1.39517071       0.00000000
Si       0.63814350       0.28939185       2.36189229       0.00000000
Si       2.62191527       1.49278302       2.14815123       0.00000000
Si       1.09733417      -1.98413829       2.93425142       0.00000000
Si      -2.45304594       0.18894771      -2.78336522       0.00000000
Si      -2.67760359      -2.63265948      -0.03336143       0.00000000
Si       0.26166627      -2.52056799      -2.78460850       0.00000000
Si      -3.49029540       1.17993357       1.14071213       0.00000000
