10
Lattice="16.28999089631971 0.0 0.0 0.0 16.28999089631971 0.0 0.0 0.0 34.53561885213415" Properties=species:S:1:pos:R:3:initial_magmoms:R:1 pbc="T T T"
Si      -1.12593222       1.45073853      -1.42635639       0.00000000
Si       0.74069001       1.88361270       1.23565060       0.00000000
Si       1.57411899      -1.24339941      -1.37168648       0.00000000
Si      -1.73532483      -0.78451011       1.56943754       0.00000000
Si       1.46100123       0.07270227       2.86124309       0.00000000
Si      -2.44302759      -2.51656065       0.06900221       0.00000000
Si      -3.24918711       1.05948531       1.20557006       0.00000000
Si      -2.43625095       2.78951589      -0.10543730       0.00000000
Si      -2.49285870       0.10845882      -2.75476971       0.00000000
Si       2.67760359       2.63265948       0.03336143       0.00000000
