10
Lattice="16.28999089631971 0.0 0.0 0.0 16.28999089631971 0.0 0.0 0.0 34.53561885213415" Properties=species:S:1:pos:R:3:initial_magmoms:R:1 pbc="T T T"
Si      -0.89176347       1.05453315      -1.89141329       0.00000000
Si      -0.88793532       0.11588706       2.18524250       0.00000000
Si       1.83771467       1.48439367       0.19188001       0.00000000
Si       0.07879473      -2.32772697      -0.45476528       0.00000000
Si       1.20073590      -0.55977327       3.29435452       0.00000000
Si      -0.99751815      -2.27348127      -2.55964336       0.00000000
Si       3.23828000       0.62540568      -1.51383516       0.00000000
Si       2.27968029       1.40569668       2.46581003       0.00000000
Si      -3.25521441       0.24873201       1.86464818       0.00000000
Si      -0.19427454      -0.09663228      -3.76055110       0.00000000
