10
Lattice="16.28999089631971 0.0 0.0 0.0 16.28999089631971 0.0 0.0 0.0 34.53561885213415" Properties=species:S:1:pos:R:3:initial_magmoms:R:1 pbc="T T T"
Si       1.66591314       0.99994536      -1.42366261       0.00000000
Si      -0.94006332      -1.80553473      -1.35773408       0.00000000
Si       1.86466743      -0.18352314       1.61726940       0.00000000
Si      -1.27407348       2.29252428       0.71364443       0.00000000
Si      -2.79865458      -1.18439703       1.49974462       0.00000000
Si       0.47473947       0.00099369       3.50574716       0.00000000
Si      -3.25784524       1.08913311       0.92738549       0.00000000
Si      -2.28930863      -0.38503044      -2.82967751       0.00000000
Si       0.43023519       2.36141469      -2.85057157       0.00000000
Si       3.29111757       1.88058276       0.04361851       0.00000000
