10
Lattice="16.28999089631971 0.0 0.0 0.0 16.28999089631971 0.0 0.0 0.0 34.53561885213415" Properties=species:S:1:pos:R:3:initial_magmoms:R:1 pbc="T T T"
Si      -1.02511341      -1.79488107       1.09989100       0.00000000
Si      -1.36151820       1.28288637      -1.45287976       0.00000000
Si       0.67935816       1.80330300       1.40615304       0.00000000
Si       1.37246508      -1.40991579      -1.44345153       0.00000000
Si       2.54568717       2.62164744       0.02835376       0.00000000
Si      -2.80707651       2.48466483       0.05698380       0.00000000
Si       2.46518199      -2.97481464      -0.04082112       0.00000000
Si      -2.64867255      -2.81795823      -0.17961985       0.00000000
Si       0.01474245       2.64531681      -2.82763991       0.00000000
Si      -1.09286352       3.45520674       1.37831732       0.00000000
