10
Lattice="16.28999089631971 0.0 0.0 0.0 16.28999089631971 0.0 0.0 0.0 34.53561885213415" Properties=species:S:1:pos:R:3:initial_magmoms:R:1 pbc="T T T"
Si       1.35646830       1.35708732      -1.35711244       0.00000000
Si      -1.35749457       1.35700587       1.35752686       0.00000000
Si      -1.35795069      -1.35847197      -1.35687069       0.00000000
Si       1.35747828      -1.35790182       1.35797583       0.00000000
Si       0.00171045      -2.71463076      -2.71301613       0.00000000
Si       2.71298547      -0.00177561       2.71533001       0.00000000
Si       0.00073305       2.71384884       2.71498466       0.00000000
Si      -2.71498914       2.71409319      -0.00013814       0.00000000
Si       2.71523349       2.71422351      -0.00013814       0.00000000
Si      -2.71461447      -0.00021177       2.71501919       0.00000000
