10
Lattice="16.28999089631971 0.0 0.0 0.0 16.28999089631971 0.0 0.0 0.0 34.53561885213415" Properties=species:S:1:pos:R:3:initial_magmoms:R:1 pbc="T T T"
Si       0.44196562      -0.07869699       2.27393002       0.00000000
Si       1.40056533      -0.85898799      -1.70571517       0.00000000
Si      -1.83771467      -1.48439367      -0.19188001       0.00000000
Si      -0.85624217       2.21895864      -0.25697968       0.00000000
Si      -2.72947814      -0.42986052      -2.08329330       0.00000000
Si      -1.73699360       1.78487901      -2.42699197       0.00000000
Si      -2.72564999      -1.36850661       1.99336250       0.00000000
Si       2.56163508       0.74222127       2.52928653       0.00000000
Si      -0.63697877      -2.04416694       3.10247452       0.00000000
Si      -2.73809555       2.46226608       1.28037425       0.00000000
