10
Lattice="16.28999089631971 0.0 0.0 0.0 16.28999089631971 0.0 0.0 0.0 34.53561885213415" Properties=species:S:1:pos:R:3:initial_magmoms:R:1 pbc="T T T"
Si       1.62137628       1.41630147      -0.87216301       0.00000000
Si      -1.77460002       1.51417179       0.27908249       0.00000000
Si      -0.57001968      -1.48682088      -1.72826694       0.00000000
Si      -0.07809426      -1.30017006       1.96017375       0.00000000
Si       0.24084765       2.05180925      -2.84086706       0.00000000
Si      -2.26437516      -2.26789380       1.48040467       0.00000000
Si       1.27303092       3.47051024       0.22527597       0.00000000
Si       3.66538376       0.29004345      -0.57508745       0.00000000
Si      -1.76687856      -3.22589241      -0.65369056       0.00000000
Si      -1.11746142       0.14234202      -3.64986438       0.00000000
