10
Lattice="16.28999089631971 0.0 0.0 0.0 16.28999089631971 0.0 0.0 0.0 34.53561885213415" Properties=species:S:1:pos:R:3:initial_magmoms:R:1 pbc="T T T"
Si      -1.35021294      -1.44559089      -1.35979728       0.00000000
Si       1.44748053      -1.25227746       1.50101553       0.00000000
Si      -1.25089281       1.45785726       1.51371774       0.00000000
Si       1.77005511       1.14161949      -1.34739898       0.00000000
Si      -2.56353612       0.28101879      -2.64697505       0.00000000
Si      -2.59093753       2.83252149       0.12511571       0.00000000
Si       0.10099800      -2.60222976       2.88872309       0.00000000
Si      -2.61710579       0.11108151       2.89031173       0.00000000
Si       2.79037926      -2.73124656       0.01948501       0.00000000
Si       0.16193889      -2.78917380      -2.74771550       0.00000000
