10
Lattice="16.28999089631971 0.0 0.0 0.0 16.28999089631971 0.0 0.0 0.0 34.53561885213415" Properties=species:S:1:pos:R:3:initial_magmoms:R:1 pbc="T T T"
Si      -1.35949661       1.35488817      -1.36146393       0.00000000
Si       1.35677781      -1.36107837      -1.35980622       0.00000000
Si       1.34895861       1.36891386       1.36426131       0.00000000
Si      -1.37058521      -1.37753127       1.38515538       0.00000000
Si       2.58463656       0.00744453       2.79117028       0.00000000
Si      -2.71292730       2.70976005      -0.00231389       0.00000000
Si       2.71425609       2.71409319      -0.00103607       0.00000000
Si      -2.71559906      -2.71332756      -0.00428242       0.00000000
Si      -0.00050499       2.71213839      -2.71867997       0.00000000
Si       2.71446786      -0.00237834      -2.71874904       0.00000000
