10
Lattice="16.28999089631971 0.0 0.0 0.0 16.28999089631971 0.0 0.0 0.0 34.53561885213415" Properties=species:S:1:pos:R:3:initial_magmoms:R:1 pbc="T T T"
Si       1.37676075       0.02736720      -1.87000120       0.00000000
Si      -0.89052121       2.09052828       0.77532508       0.00000000
Si      -1.06213636      -2.21087880      -0.01053337       0.00000000
Si       0.58350780      -1.89921852       1.75437588       0.00000000
Si      -1.06578532      -0.52517331       3.13925497       0.00000000
Si       2.76848061      -1.92384900       0.49807297       0.00000000
Si       1.91196870      -2.26747026      -1.68091858       0.00000000
Si      -2.77366150       1.03938345       1.75965984       0.00000000
Si       2.66311689       1.93774437      -1.29898896       0.00000000
Si      -0.95843422       3.26026431      -1.28717777       0.00000000
