10
Lattice="16.28999089631971 0.0 0.0 0.0 16.28999089631971 0.0 0.0 0.0 34.53561885213415" Properties=species:S:1:pos:R:3:initial_magmoms:R:1 pbc="T T T"
Si      -1.35596331      -1.35615716       1.35756140       0.00000000
Si       1.36010097      -1.35268739      -1.35759594       0.00000000
Si      -1.35186638       1.36024758      -1.36094589       0.00000000
Si       1.35881406       1.35913986       1.35721604       0.00000000
Si       0.00394218      -2.72426444      -2.68697280       0.00000000
Si      -2.71218687      -2.71246662      -0.00013814       0.00000000
Si      -2.71293367       0.00100998       2.71432848       0.00000000
Si       0.00172674      -2.71303618       2.71457023       0.00000000
Si       2.71581993      -2.71346448      -0.00058711       0.00000000
Si       2.71524978       2.71415835      -0.00024175       0.00000000
