10
Lattice="16.28999089631971 0.0 0.0 0.0 16.28999089631971 0.0 0.0 0.0 34.53561885213415" Properties=species:S:1:pos:R:3:initial_magmoms:R:1 pbc="T T T"
Si      -1.35503315       1.35475785      -1.35604183       0.00000000
Si      -1.35514229      -1.35770634       1.35659440       0.00000000
Si       1.35959598       1.35653346       1.35700883       0.00000000
Si       1.35876519      -1.35635427      -1.36115311       0.00000000
Si       0.00472410       2.70365220      -2.68745630       0.00000000
Si      -2.71140495       2.71545002      -0.00062164       0.00000000
Si      -2.71337199      -0.00019548       2.71443209       0.00000000
Si      -2.71221595      -2.71603170      -0.00006907       0.00000000
Si       0.00250866       2.71488046       2.71408673       0.00000000
Si       0.00203625      -2.71554300       2.71439755       0.00000000
