10
Lattice="16.28999089631971 0.0 0.0 0.0 16.28999089631971 0.0 0.0 0.0 34.53561885213415" Properties=species:S:1:pos:R:3:initial_magmoms:R:1 pbc="T T T"
Si       1.33338537       1.35897696       1.36861280       0.00000000
Si       1.35580041      -1.35938421      -1.36122218       0.00000000
Si      -1.35816409       1.35666378      -1.36160207       0.00000000
Si      -1.36901323      -1.36226754       1.39779542       0.00000000
Si       2.71393029      -2.71417464      -0.00048350       0.00000000
Si      -2.71563164       2.71296918       0.00075978       0.00000000
Si       2.71423980       2.71701798      -0.00272832       0.00000000
Si      -2.71325310      -2.71850778      -0.00176132       0.00000000
Si       2.71397916      -0.00073305      -2.71861090       0.00000000
Si      -0.00035838       2.71429402      -2.71843822       0.00000000
