10
Lattice="16.28999089631971 0.0 0.0 0.0 16.28999089631971 0.0 0.0 0.0 34.53561885213415" Properties=species:S:1:pos:R:3:initial_magmoms:R:1 pbc="T T T"
Si      -1.01173836      -1.79839971      -1.24739271       0.00000000
Si       0.33836122      -1.20989088       2.06087967       0.00000000
Si       1.87083319       0.93836902      -1.20387781       0.00000000
Si      -1.82008074       1.85632599      -0.27141558       0.00000000
Si      -0.02462396       1.34655651       2.42982389       0.00000000
Si      -2.18561205      -0.43064244      -2.75418261       0.00000000
Si       0.54083452       2.31097826      -2.72006140       0.00000000
Si      -2.26841412       2.10337687       1.99550371       0.00000000
Si      -2.87806737      -2.61674415       0.13040657       0.00000000
Si      -3.62092395       0.79184061      -1.39340939       0.00000000
