10
Lattice="16.28999089631971 0.0 0.0 0.0 16.28999089631971 0.0 0.0 0.0 34.53561885213415" Properties=species:S:1:pos:R:3:initial_magmoms:R:1 pbc="T T T"
Si      -1.33693659       1.91200617      -0.38151519       0.00000000
Si      -1.28635614      -1.91037717      -0.57101224       0.00000000
Si       1.60902846       0.33668172      -1.72132528       0.00000000
Si       0.68352840       0.03494205       2.42630126       0.00000000
Si       1.70010585      -2.12265216       2.17526170       0.00000000
Si      -2.66311689      -1.93774437       1.29898896       0.00000000
Si       0.25102890       1.00315449      -3.58400492       0.00000000
Si      -0.23943042       3.60304731       0.95608461       0.00000000
Si      -2.43494449      -1.41328782      -2.55460115       0.00000000
Si       2.94034500      -1.66662990      -1.76608346       0.00000000
