10
Lattice="16.28999089631971 0.0 0.0 0.0 16.28999089631971 0.0 0.0 0.0 34.383488856416385" Properties=species:S:1:pos:R:3:initial_magmoms:R:1 pbc="T T T"
Si       0.08306434      -1.88108775      -1.40033713       0.00000000
Si      -2.32745397       0.27188010      -0.15947071       0.00000000
Si       0.58887047      -0.42479433       2.23606268       0.00000000
Si       1.77320234       1.23562908      -0.94176429       0.00000000
Si       3.45017639      -0.46499805      -0.71022574       0.00000000
Si       2.27988650      -2.62938519      -0.93536895       0.00000000
Si      -2.60495412       0.66243285      -2.45508563       0.00000000
Si      -3.22416960      -1.82228085       0.59294360       0.00000000
Si      -1.79698641      -3.22341633      -0.83486596       0.00000000
Si       1.93139453       3.34659221       0.17504644       0.00000000
