10
Lattice="16.28999089631971 0.0 0.0 0.0 16.28999089631971 0.0 0.0 0.0 34.383488856416385" Properties=species:S:1:pos:R:3:initial_magmoms:R:1 pbc="T T T"
Si      -0.67468213       0.21462075      -2.31332242       0.00000000
Si      -0.52590556       1.28008449       2.01566439       0.00000000
Si       1.63809780      -1.78893522       0.40723827       0.00000000
Si       1.53957588       1.94800707      -0.32251731       0.00000000
Si      -2.43442567      -1.08551673       0.39492897       0.00000000
Si      -1.57617073       2.42750259      -1.81895634       0.00000000
Si      -0.02681090      -3.60033435      -0.30487857       0.00000000
Si      -0.06770971       3.67166567      -0.20643858       0.00000000
Si       1.23092925       0.20204487      -3.69584890       0.00000000
Si      -1.90886140      -3.26438568       1.01641088       0.00000000
