10
Lattice="16.28999089631971 0.0 0.0 0.0 16.28999089631971 0.0 0.0 0.0 34.383488856416385" Properties=species:S:1:pos:R:3:initial_magmoms:R:1 pbc="T T T"
Si      -1.34338743      -1.34186349       1.34987934       0.00000000
Si      -1.52679654       1.13769836      -1.36481553       0.00000000
Si       1.35941679      -1.31509902      -1.40271647       0.00000000
Si       1.37155284       1.37435459       1.34087086       0.00000000
Si       0.26555958       2.13951218      -2.56260526       0.00000000
Si       2.21861655       0.64919058      -2.55760521       0.00000000
Si      -2.70795186      -2.69220675      -0.01378779       0.00000000
Si      -2.69894349       0.01409307       2.70465832       0.00000000
Si       0.01122381      -2.70035175       2.70513969       0.00000000
Si      -2.70440064       2.72844455      -0.02779563       0.00000000
