10
Lattice="16.28999089631971 0.0 0.0 0.0 16.28999089631971 0.0 0.0 0.0 34.383488856416385" Properties=species:S:1:pos:R:3:initial_magmoms:R:1 pbc="T T T"
Si       1.35177678      -1.29885546      -1.54364759       0.00000000
Si       1.29344229       1.58719986       1.39101920       0.00000000
Si      -1.36614456       1.39266468      -1.54464472       0.00000000
Si      -1.09035486      -1.77822129       1.55083375       0.00000000
Si       1.01903724      -1.26970124       2.63432685       0.00000000
Si       0.97909416      -3.34281293       1.19235129       0.00000000
Si       2.87655336      -2.45997245      -0.10548860       0.00000000
Si      -2.76226272      -2.64529694      -0.08764356       0.00000000
Si      -2.62708830       2.81722518      -0.13330486       0.00000000
Si       2.76861582       2.71746522      -0.11793543       0.00000000
