10
Lattice="16.28999089631971 0.0 0.0 0.0 16.28999089631971 0.0 0.0 0.0 34.383488856416385" Properties=species:S:1:pos:R:3:initial_magmoms:R:1 pbc="T T T"
Si      -0.36675306      -0.22724550       2.29561492       0.00000000
Si       0.81668286      -2.22251705      -0.49058389       0.00000000
Si      -2.12608935       0.59794074      -1.06967094       0.00000000
Si       1.77285699       1.61209098      -0.63203765       0.00000000
Si      -1.11167847       1.40079339      -2.96729675       0.00000000
Si      -1.61210727       1.70139276       2.63986260       0.00000000
Si       1.89426636       0.24187392       3.01701530       0.00000000
Si       3.06862875      -1.69542899      -0.80484916       0.00000000
Si       0.45683676       2.99890755      -2.05231721       0.00000000
Si      -1.83549204      -2.06131673       2.68713992       0.00000000
