10
Lattice="16.28999089631971 0.0 0.0 0.0 16.28999089631971 0.0 0.0 0.0 34.383488856416385" Properties=species:S:1:pos:R:3:initial_magmoms:R:1 pbc="T T T"
Si      -0.97528230      -1.82867630      -1.07053052       0.00000000
Si       2.38571937      -0.90088587      -0.10806737       0.00000000
Si      -1.71491346       0.54455841       1.86530531       0.00000000
Si      -0.70087725       1.02822480      -2.31383818       0.00000000
Si      -0.41914170      -2.76296156       1.69249380       0.00000000
Si       3.02964678       1.55246958      -0.91872734       0.00000000
Si      -1.68389730       2.86236477      -1.23742807       0.00000000
Si      -3.03093369       1.93137498       0.44502574       0.00000000
Si      -0.48584925       1.86820236       3.41610468       0.00000000
Si       2.78200620      -2.12619198      -2.32088679       0.00000000
