10
Lattice="16.28999089631971 0.0 0.0 0.0 16.28999089631971 0.0 0.0 0.0 34.383488856416385" Properties=species:S:1:pos:R:3:initial_magmoms:R:1 pbc="T T T"
Si       1.01441088       0.80285265      -1.89762581       0.00000000
Si      -1.54459988      -1.73143804      -0.31051746       0.00000000
Si      -1.59250225       1.63224171       0.69423741       0.00000000
Si       2.12608935      -0.59794074       1.06967094       0.00000000
Si       2.58292611       2.40096681      -0.98264628       0.00000000
Si      -1.66621516       1.48675572       3.01735913       0.00000000
Si      -0.43670395      -3.80321720      -0.05332882       0.00000000
Si       1.75933629      -0.82518624       3.36528585       0.00000000
Si       0.51398208       1.10345202       3.70953354       0.00000000
Si      -0.89775656       3.80408967       0.12522474       0.00000000
