10
Lattice="16.28999089631971 0.0 0.0 0.0 16.28999089631971 0.0 0.0 0.0 34.383488856416385" Properties=species:S:1:pos:R:3:initial_magmoms:R:1 pbc="T T T"
Si      -0.77397048       1.72498068      -1.45665732       0.00000000
Si      -1.82659770      -1.60897959      -0.20097160       0.00000000
Si       1.85163543      -0.87061905      -1.36227459       0.00000000
Si       0.53338347       0.78455898       2.27680714       0.00000000
Si       0.63159588      -2.31285420      -2.78633634       0.00000000
Si      -2.06013114       0.56068551      -3.02299803       0.00000000
Si      -0.84357765      -3.44311956      -1.27738171       0.00000000
Si      -3.45201390      -0.62348346      -1.60395627       0.00000000
Si       3.87201897       0.20828394       0.94313963       0.00000000
Si       2.88694638      -2.91887478       0.11772913       0.00000000
