10
Lattice="16.28999089631971 0.0 0.0 0.0 16.28999089631971 0.0 0.0 0.0 34.383488856416385" Properties=species:S:1:pos:R:3:initial_magmoms:R:1 pbc="T T T"
Si      -0.03595203      -1.71037932      -1.55891387       0.00000000
Si      -2.29518674       0.39112746      -0.13223897       0.00000000
Si       0.44294139      -0.59027892       2.23791939       0.00000000
Si       1.46873898       1.83407123      -0.39152501       0.00000000
Si       2.29695516      -1.92705261      -1.51700038       0.00000000
Si      -2.48649650       2.49480992       0.87028097       0.00000000
Si      -1.48006216      -3.29290395      -0.52596452       0.00000000
Si       0.60113358       1.52068421       3.35473012       0.00000000
Si       0.22338477       3.76270949      -0.04727732       0.00000000
Si       1.83549204       2.06131673      -2.68713992       0.00000000
