10
Lattice="16.28999089631971 0.0 0.0 0.0 16.28999089631971 0.0 0.0 0.0 34.383488856416385" Properties=species:S:1:pos:R:3:initial_magmoms:R:1 pbc="T T T"
Si       0.87089598       2.16127575       0.47641789       0.00000000
Si       1.96687089      -1.28019852      -0.65191131       0.00000000
Si      -1.51534467      -1.00090647       1.73946167       0.00000000
Si      -1.82966022       0.18902916      -1.78250983       0.00000000
Si      -0.89573823       2.30920524       2.20876218       0.00000000
Si       0.68071023      -2.44449369      -2.21825202       0.00000000
Si      -2.81074176       0.96716988       1.60148066       0.00000000
Si      -2.53467513      -2.64077190       0.33644263       0.00000000
Si      -0.79063515      -1.18079694      -3.44209861       0.00000000
Si       0.78061680       3.09151620      -2.00713728       0.00000000
