10
Lattice="16.28999089631971 0.0 0.0 0.0 16.28999089631971 0.0 0.0 0.0 34.383488856416385" Properties=species:S:1:pos:R:3:initial_magmoms:R:1 pbc="T T T"
Si       1.35764118       1.35498591      -1.35512282       0.00000000
Si       1.35096228      -1.35711990       1.36165569       0.00000000
Si      -1.35599589       1.35262386       1.36165569       0.00000000
Si      -1.35679410      -1.35993807      -1.35446953       0.00000000
Si      -0.02174715      -2.69457777       2.70907660       0.00000000
Si      -2.67709697      -0.00667890       2.72661219       0.00000000
Si       0.00039096       2.71287144      -2.71234303       0.00000000
Si      -2.71209115       2.71388142       0.00175356       0.00000000
Si      -2.71506082      -0.00270414      -2.71210235       0.00000000
Si       2.71480995      -0.00213399      -2.71254934       0.00000000
