10
Lattice="16.28999089631971 0.0 0.0 0.0 16.28999089631971 0.0 0.0 0.0 34.383488856416385" Properties=species:S:1:pos:R:3:initial_magmoms:R:1 pbc="T T T"
Si      -1.56237390       1.13689539      -1.39882426       0.00000000
Si       0.80229879       1.82016315       1.33583367       0.00000000
Si       1.18273545      -1.57623669      -1.39277276       0.00000000
Si       0.09027918      -0.93024045       2.48355517       0.00000000
Si      -0.19279215       2.49055142      -2.77942526       0.00000000
Si       2.52242505      -0.22159287      -2.78327621       0.00000000
Si      -0.78061680      -3.09151620       2.00713728       0.00000000
Si       2.69975799       2.70300363       0.03799378       0.00000000
Si      -2.93905809       2.51767914       0.05583882       0.00000000
Si      -2.61027702      -2.90248704       0.22462746       0.00000000
