10
Lattice="16.28999089631971 0.0 0.0 0.0 16.28999089631971 0.0 0.0 0.0 34.383488856416385" Properties=species:S:1:pos:R:3:initial_magmoms:R:1 pbc="T T T"
Si      -1.35716877       1.35602847       1.36316856       0.00000000
Si       1.35677781      -1.36180232       1.36378746       0.00000000
Si      -1.37155284      -1.37435459      -1.34087086       0.00000000
Si       1.36519974       1.37455020      -1.37684288       0.00000000
Si       2.70721881       2.71813311       0.00216616       0.00000000
Si      -2.71321353       2.71261080       0.00374780       0.00000000
Si       2.71399545      -2.71584341       0.00584520       0.00000000
Si      -2.71494027      -2.71621808       0.00900848       0.00000000
Si      -0.01213605      -2.68945361      -2.74358733       0.00000000
Si       0.00024435       2.71313208       2.72032001       0.00000000
