10
Lattice="16.28999089631971 0.0 0.0 0.0 16.28999089631971 0.0 0.0 0.0 34.383488856416385" Properties=species:S:1:pos:R:3:initial_magmoms:R:1 pbc="T T T"
Si      -1.35668007      -1.35623535       1.35859555       0.00000000
Si       1.35659862      -1.35783177      -1.35787350       0.00000000
Si      -1.35728280       1.35744570      -1.35780473       0.00000000
Si       1.35951453       1.35721764       1.35766720       0.00000000
Si       2.71226871      -0.00201996       2.71399344       0.00000000
Si       0.00211770       2.71554300      -2.71395906       0.00000000
Si      -2.71469592       0.00034209      -2.71495618       0.00000000
Si       2.71454931      -2.71512193      -0.00003438       0.00000000
Si       2.71489140       2.71539639       0.00006877       0.00000000
Si      -2.71544526       2.71498914      -0.00003438       0.00000000
