10
Lattice="16.28999089631971 0.0 0.0 0.0 16.28999089631971 0.0 0.0 0.0 34.383488856416385" Properties=species:S:1:pos:R:3:initial_magmoms:R:1 pbc="T T T"
Si       1.35668007       1.35623535      -1.35859555       0.00000000
Si      -1.36220238       1.35607245       1.35591364       0.00000000
Si      -1.35868374      -1.35895655      -1.35862994       0.00000000
Si       1.35917244      -1.36271869       1.35928322       0.00000000
Si       2.70901071       0.02760503       2.70959235       0.00000000
Si      -0.00674406       2.71327380       2.71327139       0.00000000
Si      -2.71393029       2.71511457      -0.00199424       0.00000000
Si       2.71619460       2.71345299      -0.00092835       0.00000000
Si       2.71327869      -0.00159642      -2.71646906       0.00000000
Si      -0.00060273       2.71368105      -2.71640029       0.00000000
