10
Lattice="16.28999089631971 0.0 0.0 0.0 16.28999089631971 0.0 0.0 0.0 34.383488856416385" Properties=species:S:1:pos:R:3:initial_magmoms:R:1 pbc="T T T"
Si      -1.28308185       1.31579217       1.45280637       0.00000000
Si      -1.35545832      -1.35720135      -1.35735775       0.00000000
Si       1.36433637       1.35713619      -1.35436638       0.00000000
Si       1.41292944      -1.26907245       1.42413052       0.00000000
Si      -2.69087994       2.69118945       0.00395410       0.00000000
Si      -2.69992089      -2.70052851       0.02709420       0.00000000
Si       2.71575477      -2.68566877      -0.00367904       0.00000000
Si      -2.70718623       0.00184077      -2.71526563       0.00000000
Si       0.00674406      -2.71327380      -2.71327139       0.00000000
Si       0.00666261       2.71702539      -2.71450920       0.00000000
