10
Lattice="16.28999089631971 0.0 0.0 0.0 16.28999089631971 0.0 0.0 0.0 34.383488856416385" Properties=species:S:1:pos:R:3:initial_magmoms:R:1 pbc="T T T"
Si       0.68080797       2.14723377      -0.66961882       0.00000000
Si      -1.77212394      -0.65132307       1.40370672       0.00000000
Si       2.06614215      -0.82223775       0.83830431       0.00000000
Si      -1.29476178      -2.95370280       1.16855791       0.00000000
Si      -0.30455784      -0.00864999      -3.60493890       0.00000000
Si       3.45155778      -0.45077688      -1.15659244       0.00000000
Si       0.25189227      -3.66229499      -0.47462995       0.00000000
Si       2.97489609       1.89708453      -1.33022916       0.00000000
Si       2.54723472       0.53343234       2.80349371       0.00000000
Si      -0.94848525      -2.46200544      -2.79427893       0.00000000
