10
Lattice="16.28999089631971 0.0 0.0 0.0 16.28999089631971 0.0 0.0 0.0 34.383488856416385" Properties=species:S:1:pos:R:3:initial_magmoms:R:1 pbc="T T T"
Si      -0.00029322       0.97127496      -2.10990959       0.00000000
Si      -0.68080797      -2.14723377       0.66961882       0.00000000
Si       0.41420583       1.64571354       1.64875798       0.00000000
Si       2.29408812      -0.25014924      -0.66061034       0.00000000
Si       1.38533418      -2.96947152       1.50792313       0.00000000
Si       0.56723409       0.31814370       3.59871549       0.00000000
Si      -0.02355534       3.58601544      -1.09968774       0.00000000
Si      -3.33892872       1.54755000      -0.77624208       0.00000000
Si      -0.98536581      -2.15588376      -2.93532008       0.00000000
Si       1.70245161       3.34998963       0.46603407       0.00000000
