10
Lattice="16.28999089631971 0.0 0.0 0.0 16.28999089631971 0.0 0.0 0.0 34.383488856416385" Properties=species:S:1:pos:R:3:initial_magmoms:R:1 pbc="T T T"
Si       1.35384561       1.35500220       1.37311915       0.00000000
Si      -1.35940539      -1.36251189       1.37741709       0.00000000
Si       1.46800593      -1.25918442      -1.45730029       0.00000000
Si      -1.42556885       1.41273396      -1.36974613       0.00000000
Si      -0.00324171      -2.27647863      -2.97861034       0.00000000
Si      -2.70286707      -2.71459818      -0.00969615       0.00000000
Si       2.71005327      -2.71961550       0.00321486       0.00000000
Si       2.72246625       2.71950147      -0.01086175       0.00000000
Si      -2.72325009       2.71850778       0.04281434       0.00000000
Si       2.71249677      -0.00351864       2.73474045       0.00000000
