10
Lattice="16.28999089631971 0.0 0.0 0.0 16.28999089631971 0.0 0.0 0.0 34.383488856416385" Properties=species:S:1:pos:R:3:initial_magmoms:R:1 pbc="T T T"
Si      -1.39844763       1.31183370      -1.37551224       0.00000000
Si       1.32170544      -1.41128415      -1.36866992       0.00000000
Si      -1.47114990      -1.36594908       1.48708672       0.00000000
Si       1.50301314       1.44539541       1.38685880       0.00000000
Si      -2.63928951       2.66489739       0.15733893       0.00000000
Si       2.71546155      -2.60517825       0.19877106       0.00000000
Si      -0.04619844       2.66268195      -2.74401025       0.00000000
Si       2.67255369      -0.05203026      -2.74576380       0.00000000
Si       0.54923364      -0.28704609       3.79250094       0.00000000
Si      -2.69118945      -2.80818423       0.06302497       0.00000000
