10
Lattice="16.28999089631971 0.0 0.0 0.0 16.28999089631971 0.0 0.0 0.0 34.383488856416385" Properties=species:S:1:pos:R:3:initial_magmoms:R:1 pbc="T T T"
Si      -1.45746630      -1.43524674       1.23536506       0.00000000
Si       1.24084188      -1.35306369      -1.53285117       0.00000000
Si       1.30199454       1.43597979       1.57335495       0.00000000
Si      -1.46098494       1.36023129      -1.51263367       0.00000000
Si       2.63928951      -2.66489739      -0.15733893       0.00000000
Si      -2.74362696      -2.59954191      -0.33097565       0.00000000
Si       2.59265124       2.78519904      -0.05786744       0.00000000
Si       2.59309107      -0.00221544      -2.90134918       0.00000000
Si      -3.42433719      -0.15504822       1.88727637       0.00000000
Si      -2.64372039       2.93646798      -0.11986091       0.00000000
