10
Lattice="16.28999089631971 0.0 0.0 0.0 16.28999089631971 0.0 0.0 0.0 34.383488856416385" Properties=species:S:1:pos:R:3:initial_magmoms:R:1 pbc="T T T"
Si       1.29768124      -1.30577382      -1.41256047       0.00000000
Si      -1.70695291       0.97997382      -1.23425104       0.00000000
Si       1.36669057       1.35334062       1.33721589       0.00000000
Si      -1.34143789      -1.37384973       1.34271725       0.00000000
Si      -0.17740336       2.08889928      -2.66867701       0.00000000
Si      -3.34887088      -0.88154964      -1.36217488       0.00000000
Si      -0.19866181      -2.41909758      -2.88069298       0.00000000
Si      -2.70724036      -0.00676035       2.69037885       0.00000000
Si       0.00615379       2.70655092       2.69213241       0.00000000
Si       2.71148871       2.69495244      -0.03206950       0.00000000
