10
Lattice="16.28999089631971 0.0 0.0 0.0 16.28999089631971 0.0 0.0 0.0 34.383488856416385" Properties=species:S:1:pos:R:3:initial_magmoms:R:1 pbc="T T T"
Si      -1.35461124       1.35848826      -1.35526035       0.00000000
Si      -1.35516510      -1.35708732       1.35639501       0.00000000
Si       1.35990549       1.35842310       1.35646378       0.00000000
Si       1.36008468      -1.35627282      -1.36416568       0.00000000
Si      -0.01122381       2.70035175      -2.70513969       0.00000000
Si      -2.71016730       2.71444481      -0.00048137       0.00000000
Si      -2.71233387       0.00003258       2.71382153       0.00000000
Si       0.00272043      -2.71445157       2.71392468       0.00000000
Si       0.00249237       2.71520082       2.71382153       0.00000000
Si      -2.71329498      -2.71663443       0.00000000       0.00000000
