10
Lattice="16.28999089631971 0.0 0.0 0.0 16.28999089631971 0.0 0.0 0.0 34.383488856416385" Properties=species:S:1:pos:R:3:initial_magmoms:R:1 pbc="T T T"
Si       1.52311500      -1.21494567       1.23976615       0.00000000
Si       1.35993807       1.32661036      -1.35419447       0.00000000
Si      -1.34983827      -1.39032373      -1.35030913       0.00000000
Si      -1.30282533       1.41659632       1.42780956       0.00000000
Si      -0.32509953      -2.00914900       2.47740052       0.00000000
Si      -1.99112670      -0.28322120       2.95839142       0.00000000
Si       0.00718389       2.68584796      -2.71052071       0.00000000
Si      -2.71575477       2.68566877       0.00367904       0.00000000
Si      -2.70901071      -0.02760503      -2.70959235       0.00000000
Si       2.71451673       2.70858880       0.03242365       0.00000000
