10
Lattice="16.28999089631971 0.0 0.0 0.0 16.28999089631971 0.0 0.0 0.0 34.383488856416385" Properties=species:S:1:pos:R:3:initial_magmoms:R:1 pbc="T T T"
Si       1.35839052       1.33695288      -1.38379867       0.00000000
Si       1.59150109      -1.17294516       1.32266479       0.00000000
Si      -1.35457866      -1.38197844      -1.38661811       0.00000000
Si      -1.30670235       1.49587812       1.55980784       0.00000000
Si      -2.70045846       2.68977222      -0.00763314       0.00000000
Si       2.72639607       2.69628822       0.00079082       0.00000000
Si      -2.71451673      -2.70858880      -0.03242365       0.00000000
Si       0.00640197       2.69399133      -2.74404463       0.00000000
Si      -2.70733284      -0.02274084      -2.74294436       0.00000000
Si       2.72153839      -0.02272455      -2.74294436       0.00000000
