10
Lattice="16.28999089631971 0.0 0.0 0.0 16.28999089631971 0.0 0.0 0.0 34.383488856416385" Properties=species:S:1:pos:R:3:initial_magmoms:R:1 pbc="T T T"
Si       0.55550529      -2.26670626       0.13093240       0.00000000
Si      -0.00493587       0.81350631       2.24207979       0.00000000
Si      -1.81201815       0.71426763      -1.44620473       0.00000000
Si       1.25529111      -2.41108942      -2.12555409       0.00000000
Si      -0.60975099       2.06465976      -2.97458605       0.00000000
Si       2.29293057       0.86581350       2.83437010       0.00000000
Si      -0.48159756       3.16136772       2.06844308       0.00000000
Si       2.34083295      -2.49786625       1.82961523       0.00000000
Si       2.85778143       2.73553083      -0.27747491       0.00000000
Si      -3.76105149       1.25563320      -0.20626666       0.00000000
