10
Lattice="16.28999089631971 0.0 0.0 0.0 16.28999089631971 0.0 0.0 0.0 34.383488856416385" Properties=species:S:1:pos:R:3:initial_magmoms:R:1 pbc="T T T"
Si      -2.29214961       0.23066640       0.16232454       0.00000000
Si       1.58241060      -1.67457032       0.37330175       0.00000000
Si       0.14472036       1.00603619      -2.10148563       0.00000000
Si       1.03549014       1.43426934       1.54993978       0.00000000
Si       3.22243893      -0.11996771      -0.48353527       0.00000000
Si      -2.14940034       2.19279690       1.42639983       0.00000000
Si       2.21345262       0.05371953      -2.64391985       0.00000000
Si       1.08960552       0.01762578       3.41170359       0.00000000
Si       3.03112917       1.98371475       0.51898467       0.00000000
Si      -0.17474283       3.35536533       1.81500224       0.00000000
