10
Lattice="16.28999089631971 0.0 0.0 0.0 16.28999089631971 0.0 0.0 0.0 34.383488856416385" Properties=species:S:1:pos:R:3:initial_magmoms:R:1 pbc="T T T"
Si      -1.66291578      -1.46996073       0.77641400       0.00000000
Si       1.42770447      -1.74956229      -0.65755021       0.00000000
Si      -0.89459793       1.40056533      -1.68750819       0.00000000
Si       0.95987196       1.46183202       1.61052352       0.00000000
Si       1.02087801       2.69187363      -1.76738108       0.00000000
Si       0.10487502      -2.62094697      -2.32676637       0.00000000
Si       0.98440470      -3.17491253       1.20287265       0.00000000
Si      -2.02628052      -2.61152321      -1.27294624       0.00000000
Si       2.98199268       0.35942256       2.14580597       0.00000000
Si       1.80700083       3.38061483       0.38695200       0.00000000
