10
Lattice="16.28999089631971 0.0 0.0 0.0 16.28999089631971 0.0 0.0 0.0 34.383488856416385" Properties=species:S:1:pos:R:3:initial_magmoms:R:1 pbc="T T T"
Si       1.35697038       1.35821133      -1.35391940       0.00000000
Si       1.35666328      -1.35780408       1.35708268       0.00000000
Si      -1.35749457      -1.35672894      -1.35887062       0.00000000
Si      -1.35855342       1.35752715       1.35725460       0.00000000
Si       0.00832419       2.70480789      -2.70728866       0.00000000
Si       2.71398960       2.71352304       0.00027507       0.00000000
Si      -2.71393029      -0.00065160       2.71485303       0.00000000
Si      -0.00084708      -2.71428541       2.71464673       0.00000000
Si       2.71360679      -0.00236205      -2.71540317       0.00000000
Si       2.71494094      -0.00063531       2.71485303       0.00000000
