10
Lattice="16.28999089631971 0.0 0.0 0.0 16.28999089631971 0.0 0.0 0.0 34.383488856416385" Properties=species:S:1:pos:R:3:initial_magmoms:R:1 pbc="T T T"
Si      -0.78612282      -0.68874120      -2.15433308       0.00000000
Si      -1.41446070       1.88385705      -0.44079657       0.00000000
Si      -0.84712887      -1.91878281       1.22357152       0.00000000
Si       2.27935286       0.86920182      -0.35177767       0.00000000
Si      -1.43246115       1.47603690      -2.79163140       0.00000000
Si       3.14629037      -1.10400588      -1.36014281       0.00000000
Si       0.07648155       3.68201241      -0.00137534       0.00000000
Si       1.17499185      -3.02119227       1.75885397       0.00000000
Si       1.75115612       2.88787491      -1.54928649       0.00000000
Si      -1.80700083      -3.38061483      -0.38695200       0.00000000
