10
Lattice="16.28999089631971 0.0 0.0 0.0 16.28999089631971 0.0 0.0 0.0 34.383488856416385" Properties=species:S:1:pos:R:3:initial_magmoms:R:1 pbc="T T T"
Si       1.49634306       1.11332376       1.46813251       0.00000000
Si      -1.11117348      -1.61067375       1.41150287       0.00000000
Si       1.75198691      -0.89085123      -1.48488618       0.00000000
Si      -2.16425682       1.08076005      -0.59889194       0.00000000
Si      -2.73976623      -0.93048480      -1.83649193       0.00000000
Si       2.88781694       2.36227806      -0.00443547       0.00000000
Si       0.19866181       2.41909758       2.88069298       0.00000000
Si      -2.24352396      -3.02316336      -0.14750525       0.00000000
Si      -2.49688233      -0.29986632       2.84487912       0.00000000
Si      -3.15020907       1.53754794       1.51851810       0.00000000
