10
Lattice="16.28999089631971 0.0 0.0 0.0 16.28999089631971 0.0 0.0 0.0 34.383488856416385" Properties=species:S:1:pos:R:3:initial_magmoms:R:1 pbc="T T T"
Si       2.02212072      -1.10240946       0.53528245       0.00000000
Si      -0.95987196      -1.46183202      -1.61052352       0.00000000
Si       0.84712887       1.91878281      -1.22357152       0.00000000
Si      -1.48812408       0.08995338       2.02687342       0.00000000
Si       0.06100605       1.23004161      -3.37790460       0.00000000
Si      -1.85446989      -0.06126669      -3.29803171       0.00000000
Si       3.00362906       0.12958695       2.37847917       0.00000000
Si       1.53299376      -3.39258146       1.20486689       0.00000000
Si       0.46783251      -3.21139431      -2.26807373       0.00000000
Si       3.57325127      -1.19270493      -1.24557696       0.00000000
