10
Lattice="16.28999089631971 0.0 0.0 0.0 16.28999089631971 0.0 0.0 0.0 34.383488856416385" Properties=species:S:1:pos:R:3:initial_magmoms:R:1 pbc="T T T"
Si       1.28772450      -1.31657409       1.46491624       0.00000000
Si       1.00338255       1.62629586      -1.39583775       0.00000000
Si      -1.42242651       1.39429368       1.43520201       0.00000000
Si      -1.09871163      -1.59107688      -1.55410503       0.00000000
Si       2.51921592       2.54114226       0.13409568       0.00000000
Si       2.28268512      -3.04220637       0.24592804       0.00000000
Si       2.64228687       0.04349430       2.81605401       0.00000000
Si      -2.63687859      -2.82730869      -0.19688341       0.00000000
Si      -0.08672796      -2.66427837       2.81742935       0.00000000
Si      -2.83281471      -0.33189246      -2.65186730       0.00000000
