10
Lattice="16.28999089631971 0.0 0.0 0.0 16.28999089631971 0.0 0.0 0.0 34.383488856416385" Properties=species:S:1:pos:R:3:initial_magmoms:R:1 pbc="T T T"
Si       1.35651861       1.35581670      -1.35777035       0.00000000
Si       1.35673355      -1.35744570       1.35735775       0.00000000
Si      -1.35759231       1.35726651       1.35725460       0.00000000
Si      -1.35687555      -1.35749457      -1.35952391       0.00000000
Si       0.00040725      -2.71331127       2.71385591       0.00000000
Si      -2.71433754       0.00035838       2.71409659       0.00000000
Si       2.71425676       2.71467963       0.00027507       0.00000000
Si       0.00301365       2.71494027      -2.71402783       0.00000000
Si       2.71705538       0.00260640      -2.71268687       0.00000000
Si       2.71526511       0.00128691       2.71457796       0.00000000
