10
Lattice="16.28999089631971 0.0 0.0 0.0 16.28999089631971 0.0 0.0 0.0 34.383488856416385" Properties=species:S:1:pos:R:3:initial_magmoms:R:1 pbc="T T T"
Si       1.28805030       1.28912544      -1.43241695       0.00000000
Si      -0.82819989       1.81856673       1.27793184       0.00000000
Si       1.39277871      -1.12993956       1.67853410       0.00000000
Si      -1.50301314      -1.44539541      -1.38685880       0.00000000
Si      -0.95377950      -1.73244150       2.40564214       0.00000000
Si      -0.97704162       0.88229898       3.41586399       0.00000000
Si       2.69868285      -2.53156374       0.25168728       0.00000000
Si       2.53869876      -0.14942817      -2.77419897       0.00000000
Si      -0.18987624       2.58903486      -2.75267489       0.00000000
Si       3.09759237       2.20823982      -0.09039424       0.00000000
