10
Lattice="16.28999089631971 0.0 0.0 0.0 16.28999089631971 0.0 0.0 0.0 34.383488856416385" Properties=species:S:1:pos:R:3:initial_magmoms:R:1 pbc="T T T"
Si       1.54197882       1.72949301      -0.00948985       0.00000000
Si       0.96052356      -1.53210708       1.50696039       0.00000000
Si      -2.22977520       0.59697963       0.53125958       0.00000000
Si       0.05387103      -1.58439798      -1.79323748       0.00000000
Si      -2.88131004      -1.68210540       0.05793621       0.00000000
Si      -1.23437475      -3.28867407      -0.61051357       0.00000000
Si       1.17110439       2.90154222      -1.99654716       0.00000000
Si       2.67986790      -2.58673797       0.12673761       0.00000000
Si       2.17588788      -0.53092368       3.25343630       0.00000000
Si       1.36792017       3.35492550       1.63321663       0.00000000
