10
Lattice="16.28999089631971 0.0 0.0 0.0 16.28999089631971 0.0 0.0 0.0 34.383488856416385" Properties=species:S:1:pos:R:3:initial_magmoms:R:1 pbc="T T T"
Si      -1.90434987      -1.10877885       0.70513698       0.00000000
Si       1.27926740       0.30305916       1.94748190       0.00000000
Si      -0.87324174       2.12556807      -0.63513216       0.00000000
Si       0.60906748      -1.18063404      -2.02625451       0.00000000
Si      -2.08860606       1.12438467      -2.38160807       0.00000000
Si      -3.36421080      -0.36453762      -1.00004433       0.00000000
Si      -1.88634942      -0.70095870       3.05597181       0.00000000
Si      -0.39540717       1.09719666       3.49539305       0.00000000
Si      -1.25801154      -3.27355695       1.34243531       0.00000000
Si      -0.36926172       0.06975378      -3.76183085       0.00000000
