10
Lattice="16.28999089631971 0.0 0.0 0.0 16.28999089631971 0.0 0.0 0.0 34.383488856416385" Properties=species:S:1:pos:R:3:initial_magmoms:R:1 pbc="T T T"
Si       0.89671563       2.09416095      -0.75241431       0.00000000
Si       0.62377668      -0.41749641       2.29200465       0.00000000
Si       1.42718319      -1.40113548      -1.42780956       0.00000000
Si      -2.45444688       0.22977045       0.04287623       0.00000000
Si       3.22416960       1.82228085      -0.59294360       0.00000000
Si       1.90742868       1.41006240       3.02564556       0.00000000
Si       3.30723394      -0.05880690      -1.99328073       0.00000000
Si       0.61921548       2.48471370      -3.04802922       0.00000000
Si      -1.21516884      -0.45180315       3.76839810       0.00000000
Si       0.21181887      -2.40231888      -3.17428547       0.00000000
