10
Lattice="16.28999089631971 0.0 0.0 0.0 16.28999089631971 0.0 0.0 0.0 34.383488856416385" Properties=species:S:1:pos:R:3:initial_magmoms:R:1 pbc="T T T"
Si       1.51583337       0.91484640       1.52993343       0.00000000
Si      -1.00338255      -1.62629586       1.39583775       0.00000000
Si       0.70222932      -0.94778478      -2.06180706       0.00000000
Si       2.61074943       1.41781644      -0.44107164       0.00000000
Si       1.22779359      -3.12665373      -1.44032515       0.00000000
Si      -2.42580906      -0.23200218       2.83103976       0.00000000
Si       0.27302040       2.49052923       2.82884265       0.00000000
Si      -2.10209418      -3.21737274      -0.15826729       0.00000000
Si       3.13665499       0.13773195      -2.45673604       0.00000000
Si       0.28434195      -2.94286995       2.86075398       0.00000000
