10
Lattice="16.28999089631971 0.0 0.0 0.0 16.28999089631971 0.0 0.0 0.0 34.383488856416385" Properties=species:S:1:pos:R:3:initial_magmoms:R:1 pbc="T T T"
Si      -2.18734694      -0.66906288      -0.24450113       0.00000000
Si       0.57236544      -0.05372442       2.25383895       0.00000000
Si       0.70983675       1.58355090      -1.64377237       0.00000000
Si      -0.33169698      -2.27447496      -0.73591022       0.00000000
Si       0.37535418      -1.71729180      -2.91001382       0.00000000
Si      -1.49296873       2.45446317      -1.90904114       0.00000000
Si       2.81544957      -0.59074056       1.91808400       0.00000000
Si      -2.66325929       0.38027376      -2.26219415       0.00000000
Si      -3.36004775       0.36154026       1.45964868       0.00000000
Si       1.55396826       0.21370851      -3.42411603       0.00000000
