10
Lattice="16.28999089631971 0.0 0.0 0.0 16.28999089631971 0.0 0.0 0.0 34.383488856416385" Properties=species:S:1:pos:R:3:initial_magmoms:R:1 pbc="T T T"
Si      -0.57236544       0.05372442      -2.25383895       0.00000000
Si       2.24308413      -0.53701614      -0.33575496       0.00000000
Si      -0.86693751       1.97320770       1.00836514       0.00000000
Si      -0.42016797      -2.00748186       1.33813737       0.00000000
Si       2.66211180      -0.55236132       1.96264502       0.00000000
Si      -3.14629037       1.10400588       1.36014281       0.00000000
Si      -2.75971238      -0.61533846      -2.49834008       0.00000000
Si       2.24670051      -2.86852239      -1.09714336       0.00000000
Si      -0.90406242      -2.22075054      -2.98974918       0.00000000
Si       0.55012959       2.61793332       2.85245583       0.00000000
