10
Lattice="16.28999089631971 0.0 0.0 0.0 16.28999089631971 0.0 0.0 0.0 34.383488856416385" Properties=species:S:1:pos:R:3:initial_magmoms:R:1 pbc="T T T"
Si      -2.29476253       0.45805851      -0.07010797       0.00000000
Si       0.55776960      -1.68581952      -1.60460955       0.00000000
Si       1.24875882       1.76436990      -1.03074880       0.00000000
Si       1.02455955      -0.03539817       2.19621219       0.00000000
Si       3.25128852       0.70703487      -0.40005212       0.00000000
Si       2.85430122      -1.47273003      -1.17546899       0.00000000
Si      -2.60379523       2.52819171       0.92158117       0.00000000
Si       3.00728061       1.25587755       1.88799843       0.00000000
Si      -2.86579870       1.02113865      -2.30115066       0.00000000
Si       0.08604378      -0.86442885      -3.83867799       0.00000000
