10
Lattice="16.28999089631971 0.0 0.0 0.0 16.28999089631971 0.0 0.0 0.0 34.383488856416385" Properties=species:S:1:pos:R:3:initial_magmoms:R:1 pbc="T T T"
Si       0.12831633       1.88745714       1.35165009       0.00000000
Si      -1.93408889      -1.22539896       0.59455962       0.00000000
Si       1.49152869      -1.84608054       0.04129459       0.00000000
Si      -0.00972513       1.19114109      -2.08855743       0.00000000
Si       1.39507560      -2.24844354      -2.33701266       0.00000000
Si       1.84177998       3.24824229       0.44571342       0.00000000
Si       1.18894194      -0.21005955      -3.58420565       0.00000000
Si      -3.21335630      -1.52845812      -1.35292228       0.00000000
Si       3.69116739      -1.06487730       0.57076623       0.00000000
Si      -2.20654729       1.93943853      -2.55352561       0.00000000
