10
Lattice="16.28999089631971 0.0 0.0 0.0 16.28999089631971 0.0 0.0 0.0 34.383488856416385" Properties=species:S:1:pos:R:3:initial_magmoms:R:1 pbc="T T T"
Si       1.81604178      -0.03456738      -1.56585934       0.00000000
Si      -1.63809780       1.78893522      -0.40723827       0.00000000
Si       1.15553115       0.57322881       2.15973129       0.00000000
Si      -1.66490870      -1.81139913      -0.71211684       0.00000000
Si       0.24268842      -2.79733509       0.13619308       0.00000000
Si      -1.96590068      -1.90837350       2.25683758       0.00000000
Si      -0.67301972      -0.21950775       3.50329235       0.00000000
Si       2.79445176      -2.15063838      -1.42502449       0.00000000
Si      -0.09852192       3.73694229      -0.72975558       0.00000000
Si       3.10391289      -0.78035616       2.13435626       0.00000000
