10
Lattice="16.28999089631971 0.0 0.0 0.0 16.28999089631971 0.0 0.0 0.0 34.383488856416385" Properties=species:S:1:pos:R:3:initial_magmoms:R:1 pbc="T T T"
Si       1.03576707      -1.69982892      -1.25597454       0.00000000
Si      -1.33641042      -1.35612621       1.38780091       0.00000000
Si       1.38127797       1.35278743       1.38601296       0.00000000
Si      -1.30247021       1.52705459      -1.65621920       0.00000000
Si       2.34266490      -0.32395923      -2.57987782       0.00000000
Si      -2.67699855       2.71185236       0.00275068       0.00000000
Si      -2.67707321      -2.75002893       0.03708949       0.00000000
Si      -2.69241839      -0.00915498       2.74701536       0.00000000
Si       2.73592179       2.70683504       0.01566169       0.00000000
Si       2.73237057      -2.71381626       0.02966953       0.00000000
