10
Lattice="16.28999089631971 0.0 0.0 0.0 16.28999089631971 0.0 0.0 0.0 34.383488856416385" Properties=species:S:1:pos:R:3:initial_magmoms:R:1 pbc="T T T"
Si      -1.32110108      -1.35930276       1.36495650       0.00000000
Si       1.35599589      -1.35262386      -1.36165569       0.00000000
Si      -1.35609526       1.36125756      -1.35990213       0.00000000
Si       1.34312679       1.36200690       1.38355798       0.00000000
Si      -2.59913205       0.00811242       2.74507613       0.00000000
Si       2.70695817      -2.70974376       0.00000000       0.00000000
Si       2.71270854       2.71566293       0.00295698       0.00000000
Si      -0.00079821      -2.71256193      -2.71612522       0.00000000
Si       2.71363707       0.00236205      -2.71677851       0.00000000
Si      -2.71614508       0.00245979      -2.71664097       0.00000000
