10
Lattice="16.28999089631971 0.0 0.0 0.0 16.28999089631971 0.0 0.0 0.0 34.383488856416385" Properties=species:S:1:pos:R:3:initial_magmoms:R:1 pbc="T T T"
Si       0.30903270      -2.07013320      -0.99168914       0.00000000
Si       0.23286555      -0.41409180       2.30531107       0.00000000
Si      -2.28109426       0.50399631      -0.39214391       0.00000000
Si       1.44411013       1.58252463      -1.03294935       0.00000000
Si      -2.45515291       2.12942880       1.25056257       0.00000000
Si      -0.26200347      -1.50705306      -3.22273183       0.00000000
Si       1.48006216       3.29290395       0.52596452       0.00000000
Si       2.60379523      -2.52819171      -0.92158117       0.00000000
Si      -1.64718520      -1.75642038       2.87078224       0.00000000
Si      -0.81512458       3.68403141       0.39372555       0.00000000
