10
Lattice="16.28999089631971 0.0 0.0 0.0 16.28999089631971 0.0 0.0 0.0 34.63643526849801" Properties=species:S:1:pos:R:3:initial_magmoms:R:1 pbc="T T T"
Si       1.35395839       1.33167492       1.37538244       0.00000000
Si      -1.36017620      -1.37744005       1.37337353       0.00000000
Si       1.41566653      -1.32956862      -1.39805546       0.00000000
Si      -1.44727883       1.31898501      -1.40522867       0.00000000
Si      -2.11469642      -0.73143729      -2.55112728       0.00000000
Si      -0.32608700      -2.50203486      -2.58714088       0.00000000
Si      -2.73316256       2.68600923       0.02591153       0.00000000
Si       2.72651958       2.69592984      -0.01051216       0.00000000
Si      -0.00318592       2.69552259       2.73458619       0.00000000
Si       2.70203571      -2.73145473       0.01619947       0.00000000
