10
Lattice="16.28999089631971 0.0 0.0 0.0 16.28999089631971 0.0 0.0 0.0 34.63643526849801" Properties=species:S:1:pos:R:3:initial_magmoms:R:1 pbc="T T T"
Si      -0.48532797       1.62569313      -1.60938286       0.00000000
Si      -0.24426855      -1.97529282      -1.33104431       0.00000000
Si      -1.76802863      -0.08112420       1.62375699       0.00000000
Si       2.35717929       0.20906586       0.58767673       0.00000000
Si      -0.37278036      -0.94263714       3.24283806       0.00000000
Si       0.91310337      -3.52608453      -0.02365670       0.00000000
Si       3.31620417      -0.83385252      -1.30877307       0.00000000
Si      -2.47320319      -2.62922229      -1.18356229       0.00000000
Si      -2.42713507       0.97332750      -2.77043146       0.00000000
Si      -3.14267185      -1.95857928       0.94806904       0.00000000
