10
Lattice="16.28999089631971 0.0 0.0 0.0 16.28999089631971 0.0 0.0 0.0 34.63643526849801" Properties=species:S:1:pos:R:3:initial_magmoms:R:1 pbc="T T T"
Si      -1.26267048       1.35334062      -1.46287066       0.00000000
Si       1.10947932       1.45357299       1.53425639       0.00000000
Si      -1.48859649      -1.27181732       1.39387484       0.00000000
Si       1.45394766      -1.35718995      -1.45919920       0.00000000
Si       1.52177922      -0.17651844       3.19316939       0.00000000
Si       2.70834282       2.60752401       0.01832268       0.00000000
Si      -0.08109162      -2.10066555       3.13879015       0.00000000
Si      -2.58064551       2.82901914       0.04790222       0.00000000
Si      -2.61438210      -0.01619226      -2.83752227       0.00000000
Si      -2.71360449      -2.76730352       0.00332510       0.00000000
