10
Lattice="16.28999089631971 0.0 0.0 0.0 16.28999089631971 0.0 0.0 0.0 34.63643526849801" Properties=species:S:1:pos:R:3:initial_magmoms:R:1 pbc="T T T"
Si      -1.23758388      -0.66953529       1.87016073       0.00000000
Si      -0.29211228       2.36796327       0.15316240       0.00000000
Si       2.16979542      -0.27427473       1.02683233       0.00000000
Si      -1.31517315      -0.96677892      -1.83514328       0.00000000
Si       3.48254136       1.00784601      -0.47185242       0.00000000
Si       1.34653140      -3.39313274      -0.53496004       0.00000000
Si       2.21529339       1.32194979       2.79304906       0.00000000
Si       0.75989592       3.08641743       2.23464014       0.00000000
Si       2.43651159      -2.64795579       1.46924377       0.00000000
Si      -3.56560407      -0.44282736       1.60952141       0.00000000
