10
Lattice="16.28999089631971 0.0 0.0 0.0 16.28999089631971 0.0 0.0 0.0 34.63643526849801" Properties=species:S:1:pos:R:3:initial_magmoms:R:1 pbc="T T T"
Si       1.36449927       1.34113941      -1.37905044       0.00000000
Si       1.26267048      -1.35334062       1.46287066       0.00000000
Si      -1.35171162      -1.36953288      -1.37465161       0.00000000
Si      -1.31797503       1.47567852       1.51077288       0.00000000
Si      -2.64449254      -0.08897598       2.74826413       0.00000000
Si       2.37214980       0.10023237       2.99712706       0.00000000
Si      -2.71417953       2.70047475       0.00453738       0.00000000
Si       2.71959921       2.69632080      -0.00010391       0.00000000
Si       2.71661814      -2.71053057       0.00367146       0.00000000
Si       0.00858483       2.69796609      -2.73846201       0.00000000
