10
Lattice="16.28999089631971 0.0 0.0 0.0 16.28999089631971 0.0 0.0 0.0 34.63643526849801" Properties=species:S:1:pos:R:3:initial_magmoms:R:1 pbc="T T T"
Si      -1.30230405      -1.91267406       0.77201194       0.00000000
Si       0.03947067       0.63921960       2.43995262       0.00000000
Si      -0.79144965       0.95754249      -2.57809523       0.00000000
Si       2.66877441      -1.06155414      -0.49578621       0.00000000
Si       0.55092780      -3.61292815       0.93698537       0.00000000
Si       3.53629836       1.08264969      -0.84807359       0.00000000
Si      -1.39209453      -3.51416351      -0.92607489       0.00000000
Si       1.83120777       2.34144315       2.56345929       0.00000000
Si       2.51318862       3.00469050       0.39838850       0.00000000
Si       0.90854217      -1.18768761       3.84140938       0.00000000
