10
Lattice="16.28999089631971 0.0 0.0 0.0 16.28999089631971 0.0 0.0 0.0 34.63643526849801" Properties=species:S:1:pos:R:3:initial_magmoms:R:1 pbc="T T T"
Si       1.38465000      -1.33623612      -1.32475087       0.00000000
Si      -1.34097651      -1.35369900       1.35870845       0.00000000
Si       1.36487394       1.37394747       1.34852533       0.00000000
Si      -1.77855849       0.85092444      -1.29735344       0.00000000
Si       2.38312926       0.42065667      -2.49147049       0.00000000
Si      -2.70122409      -2.67820632      -0.01940334       0.00000000
Si      -2.70396081       0.00956223       2.70603190       0.00000000
Si       0.00860112      -2.70115893       2.71247428       0.00000000
Si      -2.70971118       2.70648576      -0.02953104       0.00000000
Si       2.73665484      -2.68744275       0.00652551       0.00000000
