10
Lattice="16.28999089631971 0.0 0.0 0.0 16.28999089631971 0.0 0.0 0.0 34.63643526849801" Properties=species:S:1:pos:R:3:initial_magmoms:R:1 pbc="T T T"
Si       0.83440638      -0.47330595       2.09141840       0.00000000
Si       0.69460560       2.12367843      -0.55432182       0.00000000
Si      -2.34282780      -0.69579477      -0.16999572       0.00000000
Si       1.62118080       0.22024080      -1.89468334       0.00000000
Si      -1.30725621      -2.35919925      -1.74041257       0.00000000
Si       0.29160729      -1.20524823      -3.25634628       0.00000000
Si      -0.86310936       0.54196830       3.37656942       0.00000000
Si       1.68034608       2.72588715       1.67959096       0.00000000
Si      -2.66289372      -0.66257946       2.38118698       0.00000000
Si       2.84838795       0.68351211       2.37976689       0.00000000
