10
Lattice="16.28999089631971 0.0 0.0 0.0 16.28999089631971 0.0 0.0 0.0 34.63643526849801" Properties=species:S:1:pos:R:3:initial_magmoms:R:1 pbc="T T T"
Si      -1.12273938      -1.41064884       1.47776434       0.00000000
Si      -0.33967908       0.27912915      -2.31458108       0.00000000
Si      -0.90086958       2.07493875       0.68708335       0.00000000
Si       2.26242036      -0.37677141       0.57926007       0.00000000
Si       0.54967347       3.51282447      -0.47593952       0.00000000
Si      -0.07073118      -0.69219468       3.55924208       0.00000000
Si       2.63042775       1.41928254       2.15185902       0.00000000
Si       0.24400791       2.60118720      -2.65758589       0.00000000
Si      -2.91444390       2.36571525      -0.47112506       0.00000000
Si      -3.44018736      -0.84807369       1.65479126       0.00000000
