10
Lattice="16.28999089631971 0.0 0.0 0.0 16.28999089631971 0.0 0.0 0.0 34.63643526849801" Properties=species:S:1:pos:R:3:initial_magmoms:R:1 pbc="T T T"
Si      -1.22500800      -1.49548620      -1.39054974       0.00000000
Si       1.40750487      -0.82884823       1.74491531       0.00000000
Si       1.48859649       1.27181732      -1.39387484       0.00000000
Si      -1.26706878       1.40145314       1.67242121       0.00000000
Si      -2.41856653       2.53618195      -0.10848138       0.00000000
Si       3.01037571       1.09529888       1.79929454       0.00000000
Si      -2.63055481      -2.63137161       0.19451833       0.00000000
Si       2.59807581       2.72539030       0.14038155       0.00000000
Si      -2.49536573      -0.11000637      -2.85425168       0.00000000
Si       0.22592601       2.62515793      -2.85674550       0.00000000
