10
Lattice="16.28999089631971 0.0 0.0 0.0 16.28999089631971 0.0 0.0 0.0 34.63643526849801" Properties=species:S:1:pos:R:3:initial_magmoms:R:1 pbc="T T T"
Si       1.35223290      -1.35708732       1.35823393       0.00000000
Si      -1.36208835       1.35822762       1.35903057       0.00000000
Si       1.33128396       1.36368477      -1.38570757       0.00000000
Si      -1.36668213      -1.37696112      -1.38016920       0.00000000
Si       2.70790299      -2.70949941      -0.00211282       0.00000000
Si       2.71186146       2.71479366      -0.00467592       0.00000000
Si       2.71111212       0.00120546       2.71639859       0.00000000
Si      -0.00387702      -2.71428867       2.71650250       0.00000000
Si      -0.00332316       2.71560816       2.71622541       0.00000000
Si      -2.72614779      -2.70640431       0.00474519       0.00000000
