10
Lattice="16.28999089631971 0.0 0.0 0.0 16.28999089631971 0.0 0.0 0.0 34.63643526849801" Properties=species:S:1:pos:R:3:initial_magmoms:R:1 pbc="T T T"
Si      -1.30282533       1.22684877      -1.51766553       0.00000000
Si      -1.40711391      -1.35433431       1.34216262       0.00000000
Si       0.95454513       1.86877251       1.26170213       0.00000000
Si       1.41700194      -1.47310470      -1.48753182       0.00000000
Si       0.36202896      -2.31997293       2.68138113       0.00000000
Si      -2.63976192       2.59646310      -0.09085142       0.00000000
Si       2.70427032       2.59928127      -0.15046076       0.00000000
Si      -0.76004253       3.60735534       0.96479844       0.00000000
Si      -2.66017329      -2.80447011      -0.10886238       0.00000000
Si       0.06499710       2.58631443      -2.88092175       0.00000000
