10
Lattice="16.28999089631971 0.0 0.0 0.0 16.28999089631971 0.0 0.0 0.0 34.63643526849801" Properties=species:S:1:pos:R:3:initial_magmoms:R:1 pbc="T T T"
Si      -1.04567139       1.68301764      -1.39380557       0.00000000
Si       1.64359584      -1.02038931      -1.49459765       0.00000000
Si      -2.07130608      -1.49960853      -0.17283591       0.00000000
Si       0.76097106       0.28968507       2.47792660       0.00000000
Si      -1.28974446      -0.53511021       3.45467462       0.00000000
Si      -2.27638089       0.21892131      -2.94195118       0.00000000
Si       0.39053646      -2.47052511      -2.94562265       0.00000000
Si      -1.01618649      -3.51859113      -1.32103438       0.00000000
Si       3.41273871      -1.98602793      -0.15537914       0.00000000
Si      -3.14757009       2.40067359      -0.39343549       0.00000000
