10
Lattice="16.28999089631971 0.0 0.0 0.0 16.28999089631971 0.0 0.0 0.0 34.63643526849801" Properties=species:S:1:pos:R:3:initial_magmoms:R:1 pbc="T T T"
Si      -1.45054305      -1.43788572       1.16302287       0.00000000
Si      -0.63376245       2.26623222      -0.15492886       0.00000000
Si       1.86759963       0.00496845       1.48060453       0.00000000
Si      -0.30566556      -0.91163727      -2.18164637       0.00000000
Si       1.01656116       1.80028935       2.90419745       0.00000000
Si      -0.54967347      -3.51282447       0.47593952       0.00000000
Si      -2.28745809       2.40117858       1.50692823       0.00000000
Si      -3.46411737      -1.14710922       0.00481447       0.00000000
Si       0.97743258       3.42404397       1.10850509       0.00000000
Si      -1.98340524       0.62372781      -3.13622706       0.00000000
