10
Lattice="16.28999089631971 0.0 0.0 0.0 16.28999089631971 0.0 0.0 0.0 34.63643526849801" Properties=species:S:1:pos:R:3:initial_magmoms:R:1 pbc="T T T"
Si       1.35037584       1.33366230      -1.37600590       0.00000000
Si       1.35345465      -1.35609363       1.35864957       0.00000000
Si      -1.35855342       1.35877717       1.35754120       0.00000000
Si      -1.36972836      -1.33286409      -1.38686096       0.00000000
Si      -0.07253937       2.65313179      -2.70122782       0.00000000
Si       2.71272483      -2.71422351      -0.00561111       0.00000000
Si       2.71129131       2.71567399      -0.00477983       0.00000000
Si       2.71168227       0.00187335       2.71556732       0.00000000
Si      -0.00245979      -2.71340901       2.71529022       0.00000000
Si      -0.00223173       2.71686479       2.71594832       0.00000000
