10
Lattice="16.28999089631971 0.0 0.0 0.0 16.28999089631971 0.0 0.0 0.0 34.63643526849801" Properties=species:S:1:pos:R:3:initial_magmoms:R:1 pbc="T T T"
Si      -0.13235625       1.90682336      -1.41496844       0.00000000
Si      -2.14208613      -1.05924096       0.08849614       0.00000000
Si      -0.23340312       1.45072224       1.98203648       0.00000000
Si       1.95543531      -1.50151446      -0.47379206       0.00000000
Si       1.58219883       3.15530362      -0.37885354       0.00000000
Si      -1.74923649      -3.14010927       1.01664922       0.00000000
Si      -2.59375896       1.94803543       2.05124012       0.00000000
Si       0.46789767       0.19974798       3.82705114       0.00000000
Si       2.85469218      -2.14057116       1.64353441       0.00000000
Si       3.42692730      -0.26709084      -1.97382764       0.00000000
