10
Lattice="16.28999089631971 0.0 0.0 0.0 16.28999089631971 0.0 0.0 0.0 34.63643526849801" Properties=species:S:1:pos:R:3:initial_magmoms:R:1 pbc="T T T"
Si      -0.70130079       1.25097426      -1.84501466       0.00000000
Si       0.73309887      -2.20537278      -0.52165964       0.00000000
Si       0.08793342       1.41350808       1.92138805       0.00000000
Si      -2.03139558      -0.64671300       1.08422494       0.00000000
Si       2.98678779       0.99887022      -0.76300646       0.00000000
Si      -2.35390500       1.53255898       2.13135424       0.00000000
Si       1.77013656      -3.10625865       1.38483473       0.00000000
Si       1.17296145       0.26508717       3.64434385       0.00000000
Si      -1.54606761      -2.27240613       2.69360780       0.00000000
Si      -0.46789767      -0.19974798      -3.82705114       0.00000000
