10
Lattice="16.28999089631971 0.0 0.0 0.0 16.28999089631971 0.0 0.0 0.0 34.63643526849801" Properties=species:S:1:pos:R:3:initial_magmoms:R:1 pbc="T T T"
Si       0.95902488      -1.04291838      -1.89644980       0.00000000
Si       0.36184977       2.32842744       0.36305932       0.00000000
Si       0.74140677      -0.69740748       2.15660421       0.00000000
Si      -2.35717929      -0.20906586      -0.58767673       0.00000000
Si      -1.02249072       0.34925760       3.32302146       0.00000000
Si      -0.46268487       2.62190808       2.58716998       0.00000000
Si      -0.72317826       3.47684835      -1.35989648       0.00000000
Si      -0.07801281      -0.14203251      -3.80294417       0.00000000
Si      -2.84250726       1.41662727      -2.19705959       0.00000000
Si       0.62734419      -3.38048451      -1.80975475       0.00000000
