10
Lattice="16.28999089631971 0.0 0.0 0.0 16.28999089631971 0.0 0.0 0.0 34.63643526849801" Properties=species:S:1:pos:R:3:initial_magmoms:R:1 pbc="T T T"
Si       1.33429761       1.35050616       1.37001033       0.00000000
Si      -1.35842310       1.35382932      -1.35684847       0.00000000
Si       1.35506736      -1.36140417      -1.35639820       0.00000000
Si      -1.36171368      -1.36130643       1.38964920       0.00000000
Si      -0.00138465       2.71226871      -2.71404331       0.00000000
Si       2.71342530      -0.00259011      -2.71380086       0.00000000
Si       2.71412577       2.71414206       0.00311728       0.00000000
Si      -2.71702539       2.71264338       0.00533401       0.00000000
Si      -2.71691136      -0.00241092      -2.71387013       0.00000000
Si       2.70523143      -0.00560376       2.72613143       0.00000000
