10
Lattice="16.28999089631971 0.0 0.0 0.0 16.28999089631971 0.0 0.0 0.0 34.63643526849801" Properties=species:S:1:pos:R:3:initial_magmoms:R:1 pbc="T T T"
Si      -1.35223290       1.35708732      -1.35823393       0.00000000
Si       1.35567009      -1.35241209      -1.36034676       0.00000000
Si      -1.35610992      -1.35720135       1.35826857       0.00000000
Si       1.35887922       1.35829278       1.35816466       0.00000000
Si      -2.71432125       2.71531494       0.00079664       0.00000000
Si      -2.71393029       0.00022806       2.71594832       0.00000000
Si      -2.71316466      -2.71679733      -0.00284019       0.00000000
Si       0.00094482      -2.71467963       2.71556732       0.00000000
Si       0.00120546       2.71528236       2.71584441       0.00000000
Si       2.71647153       0.00000000       2.71539413       0.00000000
