10
Lattice="16.28999089631971 0.0 0.0 0.0 16.28999089631971 0.0 0.0 0.0 34.63643526849801" Properties=species:S:1:pos:R:3:initial_magmoms:R:1 pbc="T T T"
Si      -1.17731088      -2.05863246       0.18288048       0.00000000
Si      -0.89231733       1.93552893      -1.13621426       0.00000000
Si       0.93374280       0.84444102       2.07053262       0.00000000
Si       1.83397707      -0.74189547      -1.44634907       0.00000000
Si       1.33871220       3.01343823      -1.52241073       0.00000000
Si       3.03371928       1.25110458      -1.86046252       0.00000000
Si      -3.13707933      -1.92049326       1.53685413       0.00000000
Si      -2.16305136      -2.66084118      -2.05103230       0.00000000
Si       3.28684959       1.27967724       2.02550523       0.00000000
Si      -1.57053519       1.52790426      -3.47071130       0.00000000
