10
Lattice="16.28999089631971 0.0 0.0 0.0 16.28999089631971 0.0 0.0 0.0 34.63643526849801" Properties=species:S:1:pos:R:3:initial_magmoms:R:1 pbc="T T T"
Si       2.18621574      -0.33718671       0.88596587       0.00000000
Si      -0.21315465       2.09851038      -1.14719401       0.00000000
Si      -1.77727158       0.05551632       1.62032798       0.00000000
Si      -0.36800739      -1.79605395      -1.57259895       0.00000000
Si       1.34747622      -1.28071980      -3.17017078       0.00000000
Si      -2.63042775      -1.41928254      -2.15185902       0.00000000
Si      -2.70115893      -2.11147722       1.40738306       0.00000000
Si       2.47179573      -2.76920226       1.09156787       0.00000000
Si      -3.53129733       0.65565621      -1.46477567       0.00000000
Si       2.78242974       0.49205574      -2.66285063       0.00000000
