10
Lattice="16.28999089631971 0.0 0.0 0.0 16.28999089631971 0.0 0.0 0.0 34.63643526849801" Properties=species:S:1:pos:R:3:initial_magmoms:R:1 pbc="T T T"
Si       0.70040484      -1.81472229       1.33672469       0.00000000
Si       1.88115291       1.46292345      -0.16795217       0.00000000
Si      -0.50774301      -0.71172639      -2.23547142       0.00000000
Si      -1.68896349       0.93160881       1.45144063       0.00000000
Si      -0.40856949       0.91471608       3.43843012       0.00000000
Si       1.32768387      -0.77356323       3.53309155       0.00000000
Si      -2.39332680       0.48902580      -2.98348029       0.00000000
Si       1.32655986       3.40662996      -1.49695293       0.00000000
Si       3.82878531       0.28222425      -1.04716393       0.00000000
Si       2.56363875       2.33051256       1.99253133       0.00000000
