10
Lattice="16.28999089631971 0.0 0.0 0.0 16.28999089631971 0.0 0.0 0.0 34.63643526849801" Properties=species:S:1:pos:R:3:initial_magmoms:R:1 pbc="T T T"
Si      -1.96765281      -1.37121075       0.04319166       0.00000000
Si      -0.73169793       1.73286504      -1.49736857       0.00000000
Si       1.86246828      -1.35122292      -1.01114202       0.00000000
Si      -1.36039419       1.71147627       2.47916216       0.00000000
Si      -2.69055414       2.49629589      -0.08527495       0.00000000
Si      -3.70390617       0.31706856      -0.05146977       0.00000000
Si       1.13381658      -2.10105162      -3.10702853       0.00000000
Si      -1.41418377       0.86527593      -3.65785206       0.00000000
Si       2.07293508      -3.44069235       0.08181131       0.00000000
Si      -2.74711302      -1.80620262       2.32299774       0.00000000
