10
Lattice="16.28999089631971 0.0 0.0 0.0 16.28999089631971 0.0 0.0 0.0 34.63643526849801" Properties=species:S:1:pos:R:3:initial_magmoms:R:1 pbc="T T T"
Si      -1.36005210      -1.34664543       1.34257825       0.00000000
Si       1.35594702      -1.35389448      -1.35625965       0.00000000
Si      -1.35822762       1.35644779      -1.35570547       0.00000000
Si       1.35547461       1.36387766       1.35958475       0.00000000
Si      -2.52490113       0.16732503       2.72117842       0.00000000
Si       2.65518855      -0.00724905       2.76374662       0.00000000
Si       2.71288773      -2.71220355       0.00626920       0.00000000
Si      -0.00133578      -2.71326240      -2.71293494       0.00000000
Si       2.71396287       0.00137596      -2.71324667       0.00000000
Si       2.71292031       2.71449134       0.00398319       0.00000000
