10
Lattice="16.28999089631971 0.0 0.0 0.0 16.28999089631971 0.0 0.0 0.0 34.63643526849801" Properties=species:S:1:pos:R:3:initial_magmoms:R:1 pbc="T T T"
Si       1.33506324       1.36425492       1.39070907       0.00000000
Si      -1.37256119      -1.36425492       1.38589460       0.00000000
Si      -1.42977167       1.30188051      -1.41845634       0.00000000
Si       1.83394449      -0.86408676      -1.38553439       0.00000000
Si       2.69452890       2.69369811       0.00579468       0.00000000
Si       2.70301599      -2.69099397       0.01592238       0.00000000
Si      -2.72221874       2.69571807       0.03505556       0.00000000
Si      -2.72651958      -2.69592984       0.01051216       0.00000000
Si       2.70027927      -0.00322542       2.74135762       0.00000000
Si      -0.01475874      -2.71485882       2.74527154       0.00000000
