10
Lattice="16.28999089631971 0.0 0.0 0.0 16.28999089631971 0.0 0.0 0.0 34.63643526849801" Properties=species:S:1:pos:R:3:initial_magmoms:R:1 pbc="T T T"
Si       1.46575858       1.35946566       1.24833246       0.00000000
Si       1.38895938      -1.28672266      -1.49743784       0.00000000
Si      -1.88068050      -0.86442885       1.24615036       0.00000000
Si      -1.29026574       1.42886106      -1.50478077       0.00000000
Si       0.38630988       1.57019310       3.39340273       0.00000000
Si       2.65931711      -2.67220250      -0.03373591       0.00000000
Si      -2.72813517      -2.64863087      -0.11928795       0.00000000
Si      -3.48096123       0.98297118       1.27205843       0.00000000
Si      -2.67768504       2.78668143      -0.15579477       0.00000000
Si       0.04677799      -2.63780847      -2.87666147       0.00000000
