10
Lattice="16.28999089631971 0.0 0.0 0.0 16.28999089631971 0.0 0.0 0.0 34.63643526849801" Properties=species:S:1:pos:R:3:initial_magmoms:R:1 pbc="T T T"
Si       0.60582510      -0.16666299      -2.23297759       0.00000000
Si       1.74297854      -0.14120172       1.57561232       0.00000000
Si      -0.93116898      -1.83932671       1.17379481       0.00000000
Si      -0.53887320       2.31746427      -0.01565568       0.00000000
Si       0.38602413       1.01429685       3.14412417       0.00000000
Si      -1.54253268      -0.47247516      -3.11024972       0.00000000
Si       2.07063723      -1.97031622      -2.19484286       0.00000000
Si      -0.95522931      -0.90658737       3.42010744       0.00000000
Si       1.18493460       3.29525523      -1.26606633       0.00000000
Si       3.54171383       1.03666302       0.81135895       0.00000000
