10
Lattice="16.28999089631971 0.0 0.0 0.0 16.28999089631971 0.0 0.0 0.0 34.63643526849801" Properties=species:S:1:pos:R:3:initial_magmoms:R:1 pbc="T T T"
Si       0.21199806      -2.36481930       0.30798735       0.00000000
Si       2.01142404       0.99507465      -0.86113153       0.00000000
Si      -1.62507411       1.23271317       1.35369656       0.00000000
Si       1.82151522       3.11427333       0.02864435       0.00000000
Si      -0.31980528      -2.64670146       2.60667030       0.00000000
Si      -3.63905568       0.07589511       1.06534807       0.00000000
Si       0.54591048      -2.37570102      -2.99161986       0.00000000
Si      -1.01898837       0.95060295       3.64676840       0.00000000
Si       2.55780693      -2.96352567       0.15704169       0.00000000
Si       0.51520383      -0.84075948       3.87505727       0.00000000
