10
Lattice="16.28999089631971 0.0 0.0 0.0 16.28999089631971 0.0 0.0 0.0 34.63643526849801" Properties=species:S:1:pos:R:3:initial_magmoms:R:1 pbc="T T T"
Si       0.16433352      -2.20810950       0.75995845       0.00000000
Si       1.09450622       0.03332934      -2.08774694       0.00000000
Si       1.05582073       1.91798460       0.96244316       0.00000000
Si      -2.24847612       0.64423692      -0.51189216       0.00000000
Si       0.21760182       3.35531646      -0.67340195       0.00000000
Si      -1.98495279       2.93863455      -0.01513613       0.00000000
Si       0.96538191       2.33368911      -2.63746211       0.00000000
Si       1.91689873      -2.25934155       2.33609032       0.00000000
Si       0.36912458      -3.61447407      -1.10081580       0.00000000
Si      -0.10467954      -0.93087576      -3.85493349       0.00000000
