10
Lattice="16.28999089631971 0.0 0.0 0.0 16.28999089631971 0.0 0.0 0.0 34.63643526849801" Properties=species:S:1:pos:R:3:initial_magmoms:R:1 pbc="T T T"
Si      -0.30915162      -0.84400119      -2.12837550       0.00000000
Si       2.16435360       0.97379991       0.08129176       0.00000000
Si      -1.70364078       1.72525761       0.15153449       0.00000000
Si       0.61574571      -2.14716861       1.03140435       0.00000000
Si      -0.76452228       0.38561688       3.34037432       0.00000000
Si       1.26058536      -0.82464867       3.11599937       0.00000000
Si      -0.97498908       2.47508631       2.24742099       0.00000000
Si      -3.51981288       0.25563897       0.40018960       0.00000000
Si      -2.60664435      -0.84729177       2.29577349       0.00000000
Si       3.16722139       0.08255772      -1.80265428       0.00000000
