10
Lattice="16.28999089631971 0.0 0.0 0.0 16.28999089631971 0.0 0.0 0.0 34.63643526849801" Properties=species:S:1:pos:R:3:initial_magmoms:R:1 pbc="T T T"
Si      -0.21046680       2.08946943      -1.09295333       0.00000000
Si       2.02510764      -1.21026555      -0.22437495       0.00000000
Si      -1.84212207      -1.23290865      -1.04460084       0.00000000
Si       0.20624769       1.25970570       2.46481189       0.00000000
Si       1.95059718      -0.47340369       2.36385899       0.00000000
Si       0.76452228      -0.38561688      -3.34037432       0.00000000
Si      -0.93911850       1.33964073      -3.18883983       0.00000000
Si      -3.59999226      -0.44846370       0.34404390       0.00000000
Si       1.38026799      -2.53278549      -2.30896997       0.00000000
Si       2.09176632       3.06853101      -0.92822235       0.00000000
