10
Lattice="16.28999089631971 0.0 0.0 0.0 16.28999089631971 0.0 0.0 0.0 34.63643526849801" Properties=species:S:1:pos:R:3:initial_magmoms:R:1 pbc="T T T"
Si       0.47520278      -0.66003822       2.18899522       0.00000000
Si      -0.01974348      -1.96714782      -1.31459200       0.00000000
Si       2.36336039      -0.11231955      -0.36111968       0.00000000
Si      -1.61189550       1.77417648      -0.50028895       0.00000000
Si       1.98681704      -2.87904573      -0.34303945       0.00000000
Si      -0.11561013       3.60797436      -1.08595676       0.00000000
Si       1.55211024       1.09242369       3.31089666       0.00000000
Si      -2.61555498       2.41844598       1.73067973       0.00000000
Si       3.05957870       0.52517331      -2.47664505       0.00000000
Si      -1.18327302      -1.82026089       3.35202399       0.00000000
