10
Lattice="16.28999089631971 0.0 0.0 0.0 16.28999089631971 0.0 0.0 0.0 34.63643526849801" Properties=species:S:1:pos:R:3:initial_magmoms:R:1 pbc="T T T"
Si      -1.35575154      -1.35874890       1.35750657       0.00000000
Si       1.35957969       1.35593073       1.35729875       0.00000000
Si      -1.35944937       1.35891180      -1.35463174       0.00000000
Si       1.36159965      -1.35909099      -1.36194003       0.00000000
Si       2.70865396      -0.00135207      -2.70453560       0.00000000
Si      -2.71137276       2.71136041       0.00041564       0.00000000
Si      -2.71347417      -0.00055386       2.71435504       0.00000000
Si       0.00182448       2.71408450       2.71404331       0.00000000
Si      -2.71274112      -2.71630863       0.00034636       0.00000000
Si       2.71650398       2.71360166      -0.00038100       0.00000000
