10
Lattice="16.28999089631971 0.0 0.0 0.0 16.28999089631971 0.0 0.0 0.0 34.63643526849801" Properties=species:S:1:pos:R:3:initial_magmoms:R:1 pbc="T T T"
Si      -1.35594702       1.35389448       1.35625965       0.00000000
Si       1.35801585       1.35527044      -1.35698702       0.00000000
Si      -1.35728280      -1.35936792      -1.35667529       0.00000000
Si       1.35694071      -1.35830907       1.36252885       0.00000000
Si      -2.71599912       0.00724905       2.69883791       0.00000000
Si      -2.71417464       2.71034227       0.00055418       0.00000000
Si       0.00026064       2.71250070      -2.71373158       0.00000000
Si       2.71414206       2.71237852       0.00065809       0.00000000
Si      -2.71480995      -0.00218286      -2.71380086       0.00000000
Si       2.71577106      -0.00288333      -2.71373158       0.00000000
