10
Lattice="16.28999089631971 0.0 0.0 0.0 16.28999089631971 0.0 0.0 0.0 34.63643526849801" Properties=species:S:1:pos:R:3:initial_magmoms:R:1 pbc="T T T"
Si       1.35474156       1.35773892      -1.37686834       0.00000000
Si      -1.35957969      -1.36098063      -1.37600243       0.00000000
Si       1.43018055      -1.34149779       1.38074763       0.00000000
Si      -1.43830926       1.37213928       1.35134128       0.00000000
Si       2.71217097       2.70374904       0.00263237       0.00000000
Si       2.71342530      -2.71169856      -0.02722425       0.00000000
Si      -2.72557764      -2.70024669       0.01427022       0.00000000
Si      -2.71819827       2.72329704      -0.04055929       0.00000000
Si       2.71384884      -0.00299736      -2.73818492       0.00000000
Si      -2.71625976       0.00024435      -2.73759610       0.00000000
