10
Lattice="16.28999089631971 0.0 0.0 0.0 16.28999089631971 0.0 0.0 0.0 34.63643526849801" Properties=species:S:1:pos:R:3:initial_magmoms:R:1 pbc="T T T"
Si      -1.35742941      -1.34601012      -1.37950071       0.00000000
Si       1.35978457       1.36976677      -1.37939681       0.00000000
Si      -1.41512859       1.35894438       1.37797671       0.00000000
Si       1.33578000      -1.31600394       1.53564185       0.00000000
Si       2.71866972      -2.69153154       0.00038100       0.00000000
Si      -2.71217097      -2.70374904      -0.00263237       0.00000000
Si       2.70196596       2.72085258      -0.00017318       0.00000000
Si      -2.71484253       2.73007109      -0.02618516       0.00000000
Si       0.00167787      -2.70674640      -2.74081729       0.00000000
Si      -2.71437012       0.01229895      -2.74202957       0.00000000
