10
Lattice="16.28999089631971 0.0 0.0 0.0 16.28999089631971 0.0 0.0 0.0 34.63643526849801" Properties=species:S:1:pos:R:3:initial_magmoms:R:1 pbc="T T T"
Si      -1.56695139       1.75481486       0.56876522       0.00000000
Si       1.64889402       0.51919488       1.69548909       0.00000000
Si      -1.49628537      -1.83379788       0.58566781       0.00000000
Si       0.76243620      -0.12396690      -2.45184535       0.00000000
Si       0.02186118       1.72516217       3.19570412       0.00000000
Si       0.11561013      -3.60797436       1.08595676       0.00000000
Si      -2.49994485      -1.18952838       2.81663649       0.00000000
Si      -3.80767347       1.02519486       0.25547849       0.00000000
Si      -3.12522021      -1.86667110      -1.54928862       0.00000000
Si      -1.95688512       3.19266800      -1.33339959       0.00000000
