10
Lattice="16.28999089631971 0.0 0.0 0.0 16.28999089631971 0.0 0.0 0.0 34.63643526849801" Properties=species:S:1:pos:R:3:initial_magmoms:R:1 pbc="T T T"
Si       1.32250365       1.88926533      -0.34854664       0.00000000
Si       0.79676019      -1.32452361       1.77736967       0.00000000
Si      -2.21452124       0.85664223       0.13508217       0.00000000
Si       0.07641639      -1.46896704      -1.91009656       0.00000000
Si      -0.59789187      -3.19862295       1.26440378       0.00000000
Si      -1.64679845      -0.27251541      -3.14381244       0.00000000
Si      -3.41370701      -0.10756287      -1.63210438       0.00000000
Si       3.33607797       1.59848883       0.80966176       0.00000000
Si       0.14193477      -3.73531329      -0.89805400       0.00000000
Si       0.75250026       2.83530708      -2.51284015       0.00000000
