10
Lattice="16.28999089631971 0.0 0.0 0.0 16.28999089631971 0.0 0.0 0.0 34.63643526849801" Properties=species:S:1:pos:R:3:initial_magmoms:R:1 pbc="T T T"
Si      -0.79676019       1.32452361      -1.77736967       0.00000000
Si      -0.20189826       0.91004085       2.16876161       0.00000000
Si       2.31744798      -0.56257515      -0.17702692       0.00000000
Si      -1.39465206      -1.87409934      -0.51296589       0.00000000
Si      -2.18888893      -0.11150505       2.78154976       0.00000000
Si      -0.65482542      -2.41078968      -2.67542366       0.00000000
Si       1.53868824      -0.09744678       3.36929576       0.00000000
Si      -0.95604381      -3.37336578       1.27933209       0.00000000
Si      -0.72034380      -0.14444343      -3.68746623       0.00000000
Si       3.36945618       0.15587901       1.90445082       0.00000000
