10
Lattice="16.28999089631971 0.0 0.0 0.0 16.28999089631971 0.0 0.0 0.0 34.63643526849801" Properties=species:S:1:pos:R:3:initial_magmoms:R:1 pbc="T T T"
Si       1.35840435      -1.35372875      -1.35809539       0.00000000
Si      -1.35692429      -1.35767093       1.35767975       0.00000000
Si       1.35820561       1.35754694       1.35740266       0.00000000
Si      -1.35624011       1.35810080      -1.36097021       0.00000000
Si      -0.00785002      -2.71495373      -2.70415460       0.00000000
Si       2.70597180       0.00408611      -2.71814427       0.00000000
Si      -2.71467950       0.00048284       2.71442431       0.00000000
Si       0.00026971       2.71486883       2.71504777       0.00000000
Si       0.00058199      -2.71483970       2.71522095       0.00000000
Si      -2.71650398      -2.71360166       0.00038100       0.00000000
