10
Lattice="16.28999089631971 0.0 0.0 0.0 16.28999089631971 0.0 0.0 0.0 34.63643526849801" Properties=species:S:1:pos:R:3:initial_magmoms:R:1 pbc="T T T"
Si       1.00286779      -0.89124219      -1.88394604       0.00000000
Si       0.34641988       2.29513068       0.29049594       0.00000000
Si      -2.16435360      -0.97379991      -0.08129176       0.00000000
Si       1.01733005      -0.72501903       2.02342704       0.00000000
Si      -0.83710956       2.48034798       2.33086021       0.00000000
Si      -1.54860789      -3.12096852       0.95011259       0.00000000
Si      -0.74969742      -0.84001014      -3.46007791       0.00000000
Si      -0.90376824      -1.79844858       3.03470761       0.00000000
Si       1.60708180      -3.09860235      -1.38265263       0.00000000
Si      -2.47350522      -1.81780110      -2.20966726       0.00000000
