10
Lattice="16.28999089631971 0.0 0.0 0.0 16.28999089631971 0.0 0.0 0.0 34.63643526849801" Properties=species:S:1:pos:R:3:initial_magmoms:R:1 pbc="T T T"
Si      -0.50863896       2.16779175       0.90955330       0.00000000
Si       1.68358779      -0.99787653       1.41652708       0.00000000
Si      -2.40443169      -0.50974668       0.03124208       0.00000000
Si       0.77724477      -0.41565564      -2.35694146       0.00000000
Si      -1.20485727       1.53029889       3.02507867       0.00000000
Si      -1.58140062      -1.23642729       3.04315890       0.00000000
Si      -1.90388723       3.02930469      -0.70952777       0.00000000
Si       3.55302819       0.38159325       0.87955813       0.00000000
Si      -3.27853045       1.15184961      -1.38521573       0.00000000
Si       0.23900688      -2.67457365      -2.75598806       0.00000000
