10
Lattice="16.28999089631971 0.0 0.0 0.0 16.28999089631971 0.0 0.0 0.0 34.63643526849801" Properties=species:S:1:pos:R:3:initial_magmoms:R:1 pbc="T T T"
Si      -1.38829896      -1.29334455      -1.35836005       0.00000000
Si      -1.32618519       1.25352629       1.46233033       0.00000000
Si       1.04370030       1.56467635      -1.45288293       0.00000000
Si       1.38891798      -1.44226773       1.43565680       0.00000000
Si       2.68610697       2.54372815       0.12128994       0.00000000
Si      -2.61255436       2.65541239       0.04807540       0.00000000
Si      -0.80953155       3.26493044      -1.61785637       0.00000000
Si      -2.72727506       0.27697887      -2.64122505       0.00000000
Si      -0.89932203       1.66344099      -3.31594319       0.00000000
Si      -0.01459584      -2.64846078      -2.77873178       0.00000000
