10
Lattice="16.28999089631971 0.0 0.0 0.0 16.28999089631971 0.0 0.0 0.0 34.63643526849801" Properties=species:S:1:pos:R:3:initial_magmoms:R:1 pbc="T T T"
Si      -1.33155830       1.29225312       1.41618072       0.00000000
Si      -1.07690746      -1.75246191      -1.12190144       0.00000000
Si       1.39104383      -1.40833566       1.39308167       0.00000000
Si       1.32014975       1.46442213      -1.41849932       0.00000000
Si      -2.76289707       2.52273456       0.00848940       0.00000000
Si      -1.55211024      -1.09242369      -3.31089666       0.00000000
Si       0.03469607       2.65347810       2.76223994       0.00000000
Si      -2.67861261      -0.06548580       2.75877629       0.00000000
Si       2.70844870       2.75776668      -0.06013928       0.00000000
Si       2.71473664      -2.77169463      -0.04147715       0.00000000
