10
Lattice="16.28999089631971 0.0 0.0 0.0 16.28999089631971 0.0 0.0 0.0 34.63643526849801" Properties=species:S:1:pos:R:3:initial_magmoms:R:1 pbc="T T T"
Si       1.04567139      -1.68301764       1.39380557       0.00000000
Si      -2.10189870       0.71765595       1.00037008       0.00000000
Si       1.45661922       1.24739046      -1.53380612       0.00000000
Si      -1.23070950      -1.46409633      -1.54814561       0.00000000
Si      -1.02563469      -3.18262617       1.22096966       0.00000000
Si       2.14239564       2.41867404       1.52629001       0.00000000
Si       2.68926723      -2.70340695      -0.10079208       0.00000000
Si      -2.97708709      -2.38035996      -0.27508272       0.00000000
Si       0.08772165       2.59595811      -2.93848754       0.00000000
Si      -2.77208233       2.78130573       0.10647246       0.00000000
