10
Lattice="16.290000149 0.0 0.0 0.0 16.290000149 0.0 0.0 0.0 29.1751946751" Properties=species:S:1:pos:R:3:initial_magmoms:R:1 pbc="T T T"
Si       1.60731802      -0.18640647      -1.68387554       0.00000000
Si      -0.44171964       2.29059882      -0.29887069       0.00000000
Si       0.23946300      -0.51215760       2.30160543       0.00000000
Si      -1.90260686      -1.29769399      -0.62353226       0.00000000
H        1.32339961      -2.22769010       1.49966336       0.00000000
H       -2.78262525      -0.43983000      -1.50870767       0.00000000
Si      -1.50397426       1.03071718       2.75438345       0.00000000
Si       0.03694572      -0.95376322      -3.26983912       0.00000000
Si      -2.33652359       2.27382501       1.04018322       0.00000000
Si      -0.87749344      -2.78774031      -2.09629609       0.00000000
