10
Lattice="16.290000149 0.0 0.0 0.0 16.290000149 0.0 0.0 0.0 29.1751946751" Properties=species:S:1:pos:R:3:initial_magmoms:R:1 pbc="T T T"
Si      -0.43885260       0.25137099      -2.28355270       0.00000000
Si       0.80899399       1.85969900       1.18112421       0.00000000
Si      -1.87522337      -0.79731406       1.19795246       0.00000000
Si       1.63160641      -1.73757287       0.08420982       0.00000000
Si       2.18266454       0.59305375       2.59836472       0.00000000
Si      -0.67509019      -2.20024145       2.63714731       0.00000000
Si      -2.16130835       1.87721075      -2.18170209       0.00000000
Si      -0.47669427      -2.03789531      -2.95615764       0.00000000
Si       1.72022402      -2.42735663      -2.14613753       0.00000000
Si       0.64826056      -3.52337554       1.24395590       0.00000000
