10
Lattice="16.290000149 0.0 0.0 0.0 16.290000149 0.0 0.0 0.0 29.1751946751" Properties=species:S:1:pos:R:3:initial_magmoms:R:1 pbc="T T T"
Si       1.22144050      -1.53385012       1.24260072       0.00000000
Si      -1.38706093      -1.35223291      -1.29295710       0.00000000
Si      -1.05837760       1.46502487       1.47848217       0.00000000
Si       1.37544616       1.31988097      -1.35632563       0.00000000
Si       0.75637729       2.21858399       2.86287433       0.00000000
Si      -2.37229643       0.10495647       2.86196990       0.00000000
Si      -0.01985751       2.60276735      -2.71612310       0.00000000
Si      -0.02588481      -2.69977430      -2.62614680       0.00000000
Si      -2.50505993       2.81786052       0.19526958       0.00000000
Si      -2.74222605       0.00591327      -2.59653398       0.00000000
