10
Lattice="16.290000149 0.0 0.0 0.0 16.290000149 0.0 0.0 0.0 29.1751946751" Properties=species:S:1:pos:R:3:initial_magmoms:R:1 pbc="T T T"
Si      -1.07900074      -1.17084376       1.70599033       0.00000000
Si       0.87597847      -1.77991058      -1.28455465       0.00000000
Si       1.87289390       1.46350990       0.15710842       0.00000000
Si      -1.59674581       1.30060990      -1.21628469       0.00000000
H        0.47912148       2.30141864       1.78604707       0.00000000
H       -1.24165639      -0.38055069       2.98301778       0.00000000
H        2.59188563       1.54391734       1.48180814       0.00000000
Si       1.99699112      -0.33819669      -2.83565387       0.00000000
Si      -3.28917909      -1.09599121       0.90095919       0.00000000
Si      -0.28282698       2.66067830      -2.59977242       0.00000000
