10
Lattice="16.290000149 0.0 0.0 0.0 16.290000149 0.0 0.0 0.0 29.1751946751" Properties=species:S:1:pos:R:3:initial_magmoms:R:1 pbc="T T T"
Si       1.36746406       1.34882830       1.33954989       0.00000000
Si       1.44275644      -1.33176453      -1.28306671       0.00000000
Si      -1.34969167      -1.38745678       1.33634062       0.00000000
Si      -1.37718919       1.33970590      -1.35956407       0.00000000
Si       0.11354130      -2.67041239      -2.61440086       0.00000000
Si       0.03440448       2.74393650      -2.61748760       0.00000000
Si       0.00198738       2.69619050       2.68919439       0.00000000
Si       2.69312798      -0.03453480       2.69920149       0.00000000
Si      -2.71285517      -0.02493999       2.68134627       0.00000000
Si      -2.79619482      -0.09000225      -2.59591254       0.00000000
