10
Lattice="16.290000149 0.0 0.0 0.0 16.290000149 0.0 0.0 0.0 29.1751946751" Properties=species:S:1:pos:R:3:initial_magmoms:R:1 pbc="T T T"
Si      -1.35435061      -1.31321836       1.40185935       0.00000000
Si       1.34314309       1.36857178       1.36413582       0.00000000
Si      -1.37407780       1.35220033      -1.36090321       0.00000000
Si       1.42897510      -1.37494117      -1.29260992       0.00000000
Si      -2.67548591      -2.65372247       0.00947902       0.00000000
Si      -2.54510075      -0.11958489      -2.80934660       0.00000000
Si       2.68420106      -0.00514764      -2.71989545       0.00000000
Si       2.70894557       2.71883360       0.01241696       0.00000000
Si      -0.00260640      -2.68247432       2.75710549       0.00000000
Si       2.80264566      -2.64158642       0.12463060       0.00000000
