10
Lattice="16.290000149 0.0 0.0 0.0 16.290000149 0.0 0.0 0.0 29.1751946751" Properties=species:S:1:pos:R:3:initial_magmoms:R:1 pbc="T T T"
Si       1.71983306      -0.75460168      -1.38205815       0.00000000
Si       1.34789977       1.35751087       1.34077525       0.00000000
Si      -1.42441716       1.16919847      -1.46500323       0.00000000
Si      -1.19177641      -1.69271021       1.18850991       0.00000000
Si      -1.65371846      -0.67579066      -2.90316527       0.00000000
Si       0.65640556      -0.84229075      -3.48996596       0.00000000
Si       2.56560986      -2.59840163      -0.25750027       0.00000000
Si      -2.65399843      -0.41317956       2.53182339       0.00000000
Si      -0.09083304       2.54115857       2.71317582       0.00000000
Si      -2.90571249       2.37211724      -0.13922403       0.00000000
