10
Lattice="16.290000149 0.0 0.0 0.0 16.290000149 0.0 0.0 0.0 29.1751946751" Properties=species:S:1:pos:R:3:initial_magmoms:R:1 pbc="T T T"
Si       1.03539241       1.10512990      -0.21630489       0.00000000
H       -0.52799148       1.54826677       1.81551401       0.00000000
Si      -2.21693870      -0.78426577      -1.12099850       0.00000000
Si      -0.97055821       0.26008614       2.47846196       0.00000000
Si       1.03830832      -1.10762227       2.40324831       0.00000000
Si      -0.53814015      -2.46249416      -1.37158425       0.00000000
Si      -0.17910855      -2.68848533       0.98944755       0.00000000
Si       2.21038360       0.93141334       1.79424530       0.00000000
Si       2.52332591       0.02925684      -1.64057955       0.00000000
Si      -0.22527441       2.74981719      -1.36636189       0.00000000
