10
Lattice="16.290000149 0.0 0.0 0.0 16.290000149 0.0 0.0 0.0 29.1751946751" Properties=species:S:1:pos:R:3:initial_magmoms:R:1 pbc="T T T"
Si       1.35550720       1.36800163       1.33750762       0.00000000
Si      -1.32851956       1.36072000      -1.37380157       0.00000000
Si       1.38432421      -1.35456727      -1.33459011       0.00000000
Si      -1.34770755      -1.35364851       1.37596053       0.00000000
Si       2.71063973       0.00136836       2.67463597       0.00000000
Si      -2.69861771      -0.00837306      -2.69861798       0.00000000
Si       0.05822046      -2.69198768       2.70871260       0.00000000
Si       0.02744865      -2.71746524      -2.68438049       0.00000000
Si      -2.69426828       2.71184519      -0.02424459       0.00000000
Si      -0.02280600       2.71349048       2.69497108       0.00000000
