10
Lattice="16.290000149 0.0 0.0 0.0 16.290000149 0.0 0.0 0.0 29.1751946751" Properties=species:S:1:pos:R:3:initial_magmoms:R:1 pbc="T T T"
Si      -1.37150398      -1.40634829      -1.31258326       0.00000000
Si      -1.34651512       1.28013337       1.45969334       0.00000000
Si       1.33999912      -1.33584517       1.42226157       0.00000000
Si       1.34133490       1.41688792      -1.36087987       0.00000000
Si       2.67128309      -0.02524950      -2.67400287       0.00000000
Si       0.06038703      -2.77884597      -2.59681697       0.00000000
Si      -2.67973760      -2.69594615       0.15833378       0.00000000
Si      -2.77998627       2.59937903       0.17601395       0.00000000
Si      -2.72007164      -0.04297302      -2.68902518       0.00000000
Si       2.68423364       2.74662435       0.03468931       0.00000000
