10
Lattice="16.290000149 0.0 0.0 0.0 16.290000149 0.0 0.0 0.0 29.1751946751" Properties=species:S:1:pos:R:3:initial_magmoms:R:1 pbc="T T T"
Si       1.37880190       1.31831713      -1.36417375       0.00000000
Si      -1.37347507      -1.32641326      -1.36399870       0.00000000
Si       1.35570268      -1.37049400       1.33937484       0.00000000
Si      -1.36922338       1.37904625       1.32274498       0.00000000
Si      -0.05466924       2.63756279      -2.64785314       0.00000000
Si       0.04557942      -2.65776239      -2.66553331       0.00000000
Si       2.72611523      -0.00948078       2.66757557       0.00000000
Si      -2.72948726       0.01658322       2.66699207       0.00000000
Si      -0.01510083       2.73225656       2.68403038       0.00000000
Si      -0.00022806      -2.72614782       2.69739262       0.00000000
