10
Lattice="16.290000149 0.0 0.0 0.0 16.290000149 0.0 0.0 0.0 29.1751946751" Properties=species:S:1:pos:R:3:initial_magmoms:R:1 pbc="T T T"
Si       0.65226790      -0.42547851       2.13207655       0.00000000
Si      -1.06864030      -1.76101418      -1.06434028       0.00000000
Si      -1.70357564       1.59637114      -0.01347894       0.00000000
Si       1.78533515       0.58769434      -1.44376368       0.00000000
Si      -0.31224672       3.03160161      -1.19177753       0.00000000
H        3.09032706       1.12143619      -0.51733455       0.00000000
H       -0.55482111      -3.04302090       1.32843414       0.00000000
Si      -2.00098217      -0.71951302      -2.89706766       0.00000000
Si       0.75862531       1.92267614      -3.05980689       0.00000000
Si      -1.25522596      -1.21538062       3.25483723       0.00000000
