10
Lattice="16.290000149 0.0 0.0 0.0 16.290000149 0.0 0.0 0.0 29.1751946751" Properties=species:S:1:pos:R:3:initial_magmoms:R:1 pbc="T T T"
Si      -2.24591861       0.49964688      -0.28437062       0.00000000
Si       0.90595370      -0.90026197      -1.98055809       0.00000000
Si       0.27710300      -1.81972985       1.57560639       0.00000000
Si       1.34823860       1.96498127       0.47418444       0.00000000
H        0.64659735      -2.45491931      -1.13905795       0.00000000
Si       2.98103745       0.78651379       1.69396724       0.00000000
Si       1.64847797      -0.62144884       3.05214549       0.00000000
Si       2.85584880      -1.97032634      -1.04558063       0.00000000
Si      -2.96442165       1.12179457       1.89889351       0.00000000
Si      -1.00887229      -1.71529629      -3.12031625       0.00000000
