10
Lattice="16.290000149 0.0 0.0 0.0 16.290000149 0.0 0.0 0.0 29.1751946751" Properties=species:S:1:pos:R:3:initial_magmoms:R:1 pbc="T T T"
Si       1.37101528      -1.34574949      -1.33867463       0.00000000
Si       1.37832949       1.33530760       1.34459720       0.00000000
Si      -1.34987086      -1.36480879       1.35658820       0.00000000
Si      -1.34573320       1.35946567      -1.36910436       0.00000000
Si      -0.00029322       2.70124040       2.65645983       0.00000000
Si      -0.01451439      -2.69535971      -2.66427878       0.00000000
Si      -2.72106533      -0.00812871       2.68919439       0.00000000
Si       2.74172106       0.01211976      -2.67708669       0.00000000
Si      -2.69275331       0.00288333      -2.73164430       0.00000000
Si       2.73426024       2.69096141      -0.01342059       0.00000000
