10
Lattice="16.290000149 0.0 0.0 0.0 16.290000149 0.0 0.0 0.0 29.1751946751" Properties=species:S:1:pos:R:3:initial_magmoms:R:1 pbc="T T T"
H       -0.59746834      -0.09273897      -1.40108037       0.00000000
Si      -1.71554879       0.44193141       1.52449145       0.00000000
Si       0.47967534      -2.02874033       1.05865111       0.00000000
H        1.51529581      -0.85024027      -1.70531930       0.00000000
Si       1.89625376       1.49988547       0.31958508       0.00000000
Si       0.79630408      -0.93064771      -3.03001902       0.00000000
Si      -2.56132559       2.28573137       0.39993357       0.00000000
Si      -0.33888087       1.47401695       3.15640596       0.00000000
Si       2.07239753      -1.21650463       2.62098279       0.00000000
Si       0.92704762       2.95730292       1.83021831       0.00000000
