10
Lattice="16.290000149 0.0 0.0 0.0 16.290000149 0.0 0.0 0.0 29.1751946751" Properties=species:S:1:pos:R:3:initial_magmoms:R:1 pbc="T T T"
Si       1.41251243       1.39243663      -1.25502643       0.00000000
Si       1.36593932      -1.34833960       1.37120497       0.00000000
Si      -1.28173142       1.34527708       1.45610479       0.00000000
Si      -1.39405912      -1.29215539      -1.42578301       0.00000000
Si      -2.69872523      -2.64567521       0.00341350       0.00000000
Si      -2.59741772       2.77984780       0.17820209       0.00000000
Si       2.73946326       0.08009793      -2.67850169       0.00000000
Si       0.13978612       2.77231205      -2.64209396       0.00000000
Si       2.71668984      -2.71723718       0.01079482       0.00000000
Si       0.01899251      -2.69586470       2.73998841       0.00000000
