10
Lattice="16.290000149 0.0 0.0 0.0 16.290000149 0.0 0.0 0.0 29.1751946751" Properties=species:S:1:pos:R:3:initial_magmoms:R:1 pbc="T T T"
Si      -1.31326723       0.45825399      -0.60521024       0.00000000
H        0.56961244      -0.12300579      -2.33279022       0.00000000
Si       1.75541042      -0.63469099      -1.53391504       0.00000000
Si       1.06297138      -2.49572576      -0.11425006       0.00000000
Si      -2.57266343       0.70457509       1.33219774       0.00000000
Si       0.43103340      -2.16336089       2.21521418       0.00000000
Si      -2.28503090      -1.53789004      -1.48195401       0.00000000
Si      -1.34921926      -0.61700005       2.84852013       0.00000000
Si      -1.04769136       2.48880251      -1.80142240       0.00000000
Si       3.05463567       1.03835719      -0.35961345       0.00000000
