10
Lattice="16.290000149 0.0 0.0 0.0 16.290000149 0.0 0.0 0.0 29.1751946751" Properties=species:S:1:pos:R:3:initial_magmoms:R:1 pbc="T T T"
Si       1.33265233       1.33853465      -1.33178053       0.00000000
Si      -1.33232653       1.41962627       1.28397114       0.00000000
Si       1.43000137      -1.34692074       1.26424871       0.00000000
Si      -1.35915616      -1.28413560      -1.40803866       0.00000000
Si       0.04935870      -2.69130188       2.59665068       0.00000000
Si      -2.67994937       0.04620496       2.62258742       0.00000000
Si       0.05320314       2.76923649       2.60957529       0.00000000
Si       2.77915548       0.04108012       2.60047263       0.00000000
Si      -2.71451675      -2.67854681      -0.10222988       0.00000000
Si      -0.04178385      -2.77185593      -2.62115492       0.00000000
