10
Lattice="16.290000149 0.0 0.0 0.0 16.290000149 0.0 0.0 0.0 29.1751946751" Properties=species:S:1:pos:R:3:initial_magmoms:R:1 pbc="T T T"
Si      -1.43000137       1.34692074      -1.26424871       0.00000000
Si      -1.38064267      -1.34438113       1.33240197       0.00000000
Si       1.34915410       1.38800087       1.33622392       0.00000000
Si       1.35141841      -1.33002964      -1.40134295       0.00000000
Si      -0.09734904       2.68545539      -2.59602924       0.00000000
Si      -0.00996948      -2.69179220       2.67311886       0.00000000
Si       2.69884577      -2.67421529      -0.03681910       0.00000000
Si       2.70839171       0.03476286       2.68901934       0.00000000
Si      -2.72938952       0.03316644       2.68128792       0.00000000
Si      -0.06630030      -2.78958108      -2.63125537       0.00000000
