10
Lattice="16.290000149 0.0 0.0 0.0 16.290000149 0.0 0.0 0.0 29.1751946751" Properties=species:S:1:pos:R:3:initial_magmoms:R:1 pbc="T T T"
Si       1.32113530       1.34050411       1.39238033       0.00000000
Si      -1.35822112       1.33620355      -1.38378532       0.00000000
Si       1.42024366      -1.37823175      -1.28526069       0.00000000
Si      -1.37399472      -1.35896068       1.36422627       0.00000000
Si       0.03481173      -2.64942191      -2.66638814       0.00000000
Si       2.67548591       2.65372247      -0.00947902       0.00000000
Si       0.13038516       2.53413758      -2.81882562       0.00000000
Si       2.62037684      -2.78115915       0.15393416       0.00000000
Si       2.67287951      -0.02875185       2.74762647       0.00000000
Si      -2.86119192      -0.05015691      -2.55341683       0.00000000
