10
Lattice="16.290000149 0.0 0.0 0.0 16.290000149 0.0 0.0 0.0 29.1751946751" Properties=species:S:1:pos:R:3:initial_magmoms:R:1 pbc="T T T"
Si      -1.36449928      -1.34750067       1.35005296       0.00000000
Si      -1.36278883       1.36563958      -1.33590299       0.00000000
Si       1.35928648       1.34356663       1.36379448       0.00000000
Si       1.36316350      -1.36251679      -1.34500565       0.00000000
Si       0.00957852      -2.69397506       2.68683120       0.00000000
Si       2.71285517       0.02493999      -2.68134627       0.00000000
Si       0.00791694       2.72350883      -2.67431504       0.00000000
Si      -2.74831851       0.01602936      -2.66150713       0.00000000
Si      -0.00094482       2.69513165       2.71650238       0.00000000
Si       0.01400940      -2.75051766      -2.68122957       0.00000000
