10
Lattice="16.290000149 0.0 0.0 0.0 16.290000149 0.0 0.0 0.0 29.1751946751" Properties=species:S:1:pos:R:3:initial_magmoms:R:1 pbc="T T T"
Si       1.31156449       1.33813099      -1.36455303       0.00000000
Si      -1.27612603      -1.46220670      -1.29747926       0.00000000
Si      -1.30469869       1.41145000       1.33826618       0.00000000
Si       1.23228964      -1.49094226       1.36087696       0.00000000
H       -1.92265985      -2.28866357      -0.22091457       0.00000000
Si      -2.59613732      -0.02669931       2.61911558       0.00000000
Si       2.54310523       2.69847436       0.08122374       0.00000000
Si      -0.15811074       2.63098326      -2.63577461       0.00000000
Si       2.69065516      -0.05748741      -2.66267414       0.00000000
Si       2.57341603      -2.79259473      -0.06208481       0.00000000
