10
Lattice="16.290000149 0.0 0.0 0.0 16.290000149 0.0 0.0 0.0 29.1751946751" Properties=species:S:1:pos:R:3:initial_magmoms:R:1 pbc="T T T"
Si       0.59746834       0.09273897       1.40108037       0.00000000
H        2.11276415      -0.75750130      -0.30423893       0.00000000
Si       1.39377241      -0.83790874      -1.62893864       0.00000000
Si      -0.47912148      -2.30141864      -1.78604707       0.00000000
Si      -1.11808045       0.53467038       2.92557182       0.00000000
H       -3.11352402      -0.64327582       0.73349357       0.00000000
Si       1.07714368      -1.93600136       2.45973149       0.00000000
Si       1.05280642       1.11281878      -3.00142733       0.00000000
H       -1.72077788      -2.68196933       1.19697071       0.00000000
Si       2.49372209       1.59262444       1.72066546       0.00000000
