10
Lattice="16.290000149 0.0 0.0 0.0 16.290000149 0.0 0.0 0.0 29.1751946751" Properties=species:S:1:pos:R:3:initial_magmoms:R:1 pbc="T T T"
Si       1.38064267       1.34438113      -1.33240197       0.00000000
Si       1.37067319      -1.34741107       1.34071690       0.00000000
Si      -1.34874685       1.37754757       1.34888595       0.00000000
Si      -1.37889964      -1.34350147      -1.35930150       0.00000000
Si      -0.04935870       2.69130188      -2.59665068       0.00000000
Si      -0.00371412      -2.69000030       2.68283420       0.00000000
Si      -2.72574056       0.02191005       2.68038349       0.00000000
Si       2.72510525      -2.70130556      -0.02430294       0.00000000
Si       2.72864018       0.01567098       2.69826788       0.00000000
Si      -0.04328253      -2.78469408      -2.64904933       0.00000000
