10
Lattice="16.290000149 0.0 0.0 0.0 16.290000149 0.0 0.0 0.0 29.1751946751" Properties=species:S:1:pos:R:3:initial_magmoms:R:1 pbc="T T T"
Si       1.30914586      -1.42605919      -1.29952269       0.00000000
Si       1.41522634       1.29290473       1.34464855       0.00000000
Si      -1.29606499      -1.48566430       1.27633774       0.00000000
Si      -1.28523214       1.49776777      -1.33316169       0.00000000
Si       2.57507435       0.05722677      -2.62571034       0.00000000
Si      -2.63313191       0.14025690      -2.67393693       0.00000000
Si      -2.68179014      -0.11707623       2.62934032       0.00000000
Si       0.03358998       2.64964997       2.66968377       0.00000000
Si      -2.72396495       2.68141547       0.03923889       0.00000000
Si      -0.06752205      -2.45814473      -2.93143720       0.00000000
