10
Lattice="16.290000149 0.0 0.0 0.0 16.290000149 0.0 0.0 0.0 29.1751946751" Properties=species:S:1:pos:R:3:initial_magmoms:R:1 pbc="T T T"
Si      -1.48793350       1.07587306       1.42427465       0.00000000
Si      -1.42370203      -1.43646850      -1.16470295       0.00000000
Si       1.56414464      -1.07681788       1.36507818       0.00000000
Si       1.31112835       1.49185450      -1.26640768       0.00000000
H       -2.52332591      -0.02925684       1.64057955       0.00000000
Si       1.99718171       0.73565641       2.84802415       0.00000000
Si      -0.31294231       0.90215650       3.43482484       0.00000000
Si       0.01277136      -2.68115483      -2.53208597       0.00000000
Si      -2.71452164      -0.02125845      -2.52172878       0.00000000
Si       2.81583567       0.15697044      -2.51411405       0.00000000
