10
Lattice="16.290000149 0.0 0.0 0.0 16.290000149 0.0 0.0 0.0 29.1751946751" Properties=species:S:1:pos:R:3:initial_magmoms:R:1 pbc="T T T"
Si       1.36039420       1.36347301      -1.34165050       0.00000000
Si      -1.35242839       1.38525274       1.33739092       0.00000000
Si       1.38756592      -1.34249149       1.34696039       0.00000000
Si      -1.35796699      -1.36308205      -1.35755098       0.00000000
Si      -2.70746318       0.03036456       2.67168928       0.00000000
Si       0.04986369      -2.79002091       2.60306922       0.00000000
Si       2.69205284       2.71848826       0.04142878       0.00000000
Si       0.00115659       2.71671102      -2.69444593       0.00000000
Si       2.71068860       0.00254124      -2.70185643       0.00000000
Si      -2.72864018      -0.01567098      -2.69826788       0.00000000
