10
Lattice="16.290000149 0.0 0.0 0.0 16.290000149 0.0 0.0 0.0 29.1751946751" Properties=species:S:1:pos:R:3:initial_magmoms:R:1 pbc="T T T"
Si      -1.36580248      -1.35026182       1.35171886       0.00000000
Si       1.30508965       1.29482695       1.47568426       0.00000000
Si      -1.37173204       1.41193576      -1.30500938       0.00000000
Si       1.36500427      -1.34752510      -1.38935486       0.00000000
Si       2.66271455       2.63432108       0.16107625       0.00000000
Si       2.71357193      -2.71090037      -0.01291294       0.00000000
Si      -2.70894557      -2.71883360      -0.01241696       0.00000000
Si      -0.01371618      -2.66914910       2.75953871       0.00000000
Si      -2.72831438       0.02339244       2.70168429       0.00000000
Si      -2.78695839       0.11903103      -2.64965792       0.00000000
