10
Lattice="16.290000149 0.0 0.0 0.0 16.290000149 0.0 0.0 0.0 29.1751946751" Properties=species:S:1:pos:R:3:initial_magmoms:R:1 pbc="T T T"
Si       0.62775145      -0.40391055       2.14790701       0.00000000
Si       1.83143585       0.82489303      -1.16411944       0.00000000
Si      -0.87764005      -1.88923277      -1.06967934       0.00000000
Si      -1.60161652       1.77676661       0.09035558       0.00000000
H        2.67584429       1.75987388      -0.35517882       0.00000000
Si      -2.27294372      -0.60634639      -2.42947681       0.00000000
Si       0.53638083       2.11893806      -2.59034883       0.00000000
Si      -1.49670892      -0.99052975       3.14952062       0.00000000
Si      -3.45590724       0.84546730      -1.01768914       0.00000000
Si      -0.54649692       3.53895366      -1.09205671       0.00000000
