10
Lattice="16.290000149 0.0 0.0 0.0 16.290000149 0.0 0.0 0.0 29.1751946751" Properties=species:S:1:pos:R:3:initial_magmoms:R:1 pbc="T T T"
Si       1.38163636      -1.35674524      -1.32503523       0.00000000
Si       1.33786513       1.32359509       1.40582718       0.00000000
Si      -1.35190711      -1.39817071       1.32171509       0.00000000
Si      -1.32913369       1.39916440      -1.36758142       0.00000000
Si      -0.03358998      -2.64964997      -2.66968377       0.00000000
Si      -2.65608452       2.71150310       0.05589384       0.00000000
Si       2.70588305       0.04587264      -2.66587845       0.00000000
Si      -2.70265763      -0.02927313       2.68212524       0.00000000
Si      -2.75755494       0.03176550      -2.63044489       0.00000000
Si       2.69322572       2.71800630       0.10001840       0.00000000
