10
Lattice="16.290000149 0.0 0.0 0.0 16.290000149 0.0 0.0 0.0 29.1751946751" Properties=species:S:1:pos:R:3:initial_magmoms:R:1 pbc="T T T"
Si       1.34237258       1.36099693       1.35390408       0.00000000
Si      -1.33631758       1.37526697      -1.35314553       0.00000000
Si       1.36574873      -1.35112519      -1.34955698       0.00000000
Si      -1.35404110      -1.34776945       1.37374322       0.00000000
Si      -2.69549003       0.01050705      -2.68438049       0.00000000
Si       2.67146228       0.00164529       2.71921567       0.00000000
Si      -0.00434943      -2.72021825      -2.67437340       0.00000000
Si       2.69426828      -2.71184519       0.02424459       0.00000000
Si      -2.68351688       2.72302013       0.01318719       0.00000000
Si       2.69298137       2.72658764      -0.00997792       0.00000000
