10
Lattice="16.290000149 0.0 0.0 0.0 16.290000149 0.0 0.0 0.0 29.1751946751" Properties=species:S:1:pos:R:3:initial_magmoms:R:1 pbc="T T T"
Si       1.36272367       1.36158337      -1.33047640       0.00000000
Si      -1.34983828       1.36490653       1.35617975       0.00000000
Si       1.38378664      -1.33812577       1.35037389       0.00000000
Si      -1.33506325      -1.35104374      -1.39422420       0.00000000
Si       2.69834078      -0.07960923      -2.62022423       0.00000000
Si      -2.68995143      -2.69456150      -0.01768017       0.00000000
Si      -0.02225214       2.71783991      -2.67005547       0.00000000
Si       0.02352276      -2.70058880       2.69462098       0.00000000
Si      -2.71821458       0.02129103       2.69920149       0.00000000
Si       0.01588275       2.72699489       2.70920858       0.00000000
