10
Lattice="16.290000149 0.0 0.0 0.0 16.290000149 0.0 0.0 0.0 29.1751946751" Properties=species:S:1:pos:R:3:initial_magmoms:R:1 pbc="T T T"
H        0.53629938       0.25943454      -1.38512154       0.00000000
Si       1.69326407      -0.92709649       1.30806985       0.00000000
Si      -0.84996334       1.87335002       1.11720573       0.00000000
Si      -1.79510915      -1.59866803      -0.12221489       0.00000000
H        1.81804547       2.01139148      -0.95630453       0.00000000
H       -1.04620897       1.08440902      -2.56919682       0.00000000
H       -0.13185126      -0.67310281      -3.00393639       0.00000000
Si      -2.16704243       0.51344451       2.60061850       0.00000000
Si       2.66247020      -2.38451393      -0.20256338       0.00000000
Si       0.42733557      -2.41038245       2.63425750       0.00000000
