10
Lattice="16.290000149 0.0 0.0 0.0 16.290000149 0.0 0.0 0.0 29.1751946751" Properties=species:S:1:pos:R:3:initial_magmoms:R:1 pbc="T T T"
Si      -1.40438372       1.31878954       1.31320469       0.00000000
Si       1.37050378      -1.23867532       1.44455141       0.00000000
Si       1.33173358       1.39781233      -1.34173803       0.00000000
Si      -1.39171010      -1.37564164      -1.31133748       0.00000000
Si       2.56910570      -2.64132578      -0.03025468       0.00000000
Si      -0.11509211       2.72828180       2.63154421       0.00000000
Si       2.63082851       0.04015485      -2.75930239       0.00000000
Si       0.00320750      -2.66750381       2.74357696       0.00000000
Si      -2.73143229      -0.00982287      -2.68697708       0.00000000
Si      -2.72716431       2.69250896      -0.02147294       0.00000000
