10
Lattice="16.290000149 0.0 0.0 0.0 16.290000149 0.0 0.0 0.0 29.1751946751" Properties=species:S:1:pos:R:3:initial_magmoms:R:1 pbc="T T T"
Si      -1.32335074       1.32313409       1.39319140       0.00000000
Si       0.98334586       1.78580267      -1.15974608       0.00000000
Si       1.38056122      -1.32646353       1.36223944       0.00000000
Si      -1.29003769      -1.28645275      -1.50307102       0.00000000
Si      -2.52348392       2.72606148      -0.04600345       0.00000000
Si       1.07196346       1.09601890      -3.39009344       0.00000000
Si      -2.64179819      -2.64530543      -0.10536038       0.00000000
Si      -0.64826056       3.52337554      -1.24395590       0.00000000
Si       0.10616193       2.72625696       2.63580962       0.00000000
Si       0.02520063      -2.72087474       2.66804821       0.00000000
