10
Lattice="16.290000149 0.0 0.0 0.0 16.290000149 0.0 0.0 0.0 29.1751946751" Properties=species:S:1:pos:R:3:initial_magmoms:R:1 pbc="T T T"
Si       0.84577681      -1.84379996       1.12455788       0.00000000
Si      -1.71983306       0.75460168       1.38205815       0.00000000
Si      -1.06342750      -0.08768907      -2.10790782       0.00000000
Si       1.79510915       1.59866803       0.12221489       0.00000000
H        2.33140853       1.85810258      -1.26290665       0.00000000
H       -1.14966676      -3.02174616      -1.06752037       0.00000000
H        1.66325789       0.92556523      -2.88172150       0.00000000
Si       2.56132559      -2.28573137      -0.39993357       0.00000000
Si      -0.37193328       2.11211255       2.72283339       0.00000000
Si      -0.61727698       2.12550293      -2.71192187       0.00000000
