10
Lattice="16.290000149 0.0 0.0 0.0 16.290000149 0.0 0.0 0.0 29.1751946751" Properties=species:S:1:pos:R:3:initial_magmoms:R:1 pbc="T T T"
Si       1.46967523      -1.29285228       1.27122158       0.00000000
Si      -1.39971826      -1.41688955      -1.25812192       0.00000000
Si      -1.23198013       1.42982055       1.41671828       0.00000000
Si       1.38316762       1.33690239      -1.38159134       0.00000000
Si       0.15811074      -2.63098326       2.63577461       0.00000000
Si      -2.58457142       2.73987866      -0.00994874       0.00000000
Si      -2.66079233      -0.02511266      -2.68896099       0.00000000
Si       0.03033198      -2.69891256      -2.67028887       0.00000000
Si       2.70121597       0.06749110       2.71699835       0.00000000
Si       2.76257551       2.69825771      -0.04787649       0.00000000
