10
Lattice="16.290000149 0.0 0.0 0.0 16.290000149 0.0 0.0 0.0 29.1751946751" Properties=species:S:1:pos:R:3:initial_magmoms:R:1 pbc="T T T"
Si      -1.42946380       1.44404335       1.12123191       0.00000000
Si      -1.35918874      -1.30815217      -1.38970205       0.00000000
Si       1.34947990       1.39088908      -1.34553080       0.00000000
Si       1.33144687      -1.31535235       1.44262585       0.00000000
H       -0.58505536       2.37902420       1.93017253       0.00000000
Si      -2.70024671      -2.64086966      -0.01657151       0.00000000
Si       0.01410714      -2.66717801      -2.71046311       0.00000000
Si       2.71728605      -2.66530466       0.08810909       0.00000000
Si       2.73325025       0.04745277      -2.68125874       0.00000000
Si      -2.72451881       2.73808839      -0.30499749       0.00000000
