10
Lattice="16.290000149 0.0 0.0 0.0 16.290000149 0.0 0.0 0.0 29.1751946751" Properties=species:S:1:pos:R:3:initial_magmoms:R:1 pbc="T T T"
Si       1.37314927       1.38372148       1.30964531       0.00000000
Si       1.37091754      -1.33987206      -1.36545746       0.00000000
Si      -1.32385573       1.36443412      -1.39253204       0.00000000
Si      -1.36686133      -1.35911544       1.37695249       0.00000000
Si      -2.67356369      -2.67310757      -0.06949531       0.00000000
Si       2.67709862       0.00289962       2.68432214       0.00000000
Si      -2.68408703       2.71599914      -0.03982414       0.00000000
Si       2.70313004      -2.70612740       0.00627267       0.00000000
Si      -2.69039126       0.03507237       2.74203067       0.00000000
Si       0.04945644       2.75434581       2.68330100       0.00000000
