10
Lattice="16.290000149 0.0 0.0 0.0 16.290000149 0.0 0.0 0.0 29.1751946751" Properties=species:S:1:pos:R:3:initial_magmoms:R:1 pbc="T T T"
Si      -1.23137740       1.84704167       0.66849124       0.00000000
Si      -1.53077131      -0.72904267      -1.60530674       0.00000000
Si       1.61601688       0.68307229      -1.56376126       0.00000000
Si       0.05967027      -1.45557667       1.93571582       0.00000000
H        0.14310765      -2.67016886      -0.84826879       0.00000000
H        0.07361451       2.38078352       1.59492037       0.00000000
H        1.54636084      -0.36041625      -2.65710168       0.00000000
Si      -2.75027331      -2.04819059      -0.10806492       0.00000000
H       -0.26834517       3.10389663      -2.00763267       0.00000000
Si       2.30558888      -1.95522356       2.22008644       0.00000000
