10
Lattice="16.290000149 0.0 0.0 0.0 16.290000149 0.0 0.0 0.0 29.1751946751" Properties=species:S:1:pos:R:3:initial_magmoms:R:1 pbc="T T T"
Si       1.35428545      -1.38746818      -1.33161424       0.00000000
Si       1.36437711       1.33152832       1.37774022       0.00000000
Si      -1.34084620      -1.35265645       1.38459639       0.00000000
Si      -1.35334063       1.38171781      -1.35883469       0.00000000
Si      -2.69478956       2.68933241       0.06231822       0.00000000
Si       2.71132391       2.67905342       0.00895678       0.00000000
Si      -2.69757515      -2.70075170       0.02873757       0.00000000
Si       2.69860142      -0.05839965      -2.71351192       0.00000000
Si       0.03391140       2.68100822       2.76866762       0.00000000
Si      -2.69623937       0.05198139      -2.75440387       0.00000000
