10
Lattice="16.290000149 0.0 0.0 0.0 16.290000149 0.0 0.0 0.0 29.1751946751" Properties=species:S:1:pos:R:3:initial_magmoms:R:1 pbc="T T T"
Si       1.32921514       1.33864787       1.33133415       0.00000000
Si      -1.41121900       1.34407081      -1.26062807       0.00000000
Si       1.22978098      -1.20644474      -1.59128222       0.00000000
Si      -1.46096866      -1.43507489       1.21317462       0.00000000
Si      -2.45166131      -0.50836937      -2.21323610       0.00000000
Si      -0.70822405      -2.05124415      -2.66601412       0.00000000
Si       2.64490144      -0.09592285       2.60923686       0.00000000
Si       2.63168390       2.63320603      -0.13617814       0.00000000
Si       2.53257374      -2.73335533      -0.27265095       0.00000000
Si      -0.11354130       2.67041239       2.61440086       0.00000000
