10
Lattice="16.290000149 0.0 0.0 0.0 16.290000149 0.0 0.0 0.0 29.1751946751" Properties=species:S:1:pos:R:3:initial_magmoms:R:1 pbc="T T T"
Si       1.29081961      -1.41521005       1.35702583       0.00000000
Si      -1.33330393       1.06877062       1.62164485       0.00000000
Si       1.31970178       1.32639697      -1.44072946       0.00000000
Si      -1.40915017      -1.36502056      -1.31702664       0.00000000
H       -2.51910191       1.58045581       0.82276966       0.00000000
Si       2.71452164       0.02125845       2.52172878       0.00000000
Si      -2.02574297      -0.79226416       3.04130982       0.00000000
Si      -0.34694442      -2.47049255       2.79072407       0.00000000
H       -1.88708249       3.23982039      -0.28121970       0.00000000
Si       2.60899339       2.73588924      -0.12238994       0.00000000
