10
Lattice="16.290000149 0.0 0.0 0.0 16.290000149 0.0 0.0 0.0 29.1751946751" Properties=species:S:1:pos:R:3:initial_magmoms:R:1 pbc="T T T"
H        1.19539279       0.36670419       0.89127302       0.00000000
Si       0.84859498       1.48828699      -1.63206039       0.00000000
Si      -0.77800878      -2.11944305       1.18156621       0.00000000
Si       0.54061623      -2.38742984      -0.72730843       0.00000000
Si      -2.20056725       1.42822576       1.04668928       0.00000000
H        2.58813893      -1.67198933       1.35475016       0.00000000
Si      -3.41798412      -0.15263730      -0.36711147       0.00000000
H       -1.87969660      -1.54448749      -2.48105856       0.00000000
Si      -0.26044452      -1.20057301       3.26835118       0.00000000
Si       1.28163205       3.30076128      -0.14911442       0.00000000
