10
Lattice="16.290000149 0.0 0.0 0.0 16.290000149 0.0 0.0 0.0 29.1751946751" Properties=species:S:1:pos:R:3:initial_magmoms:R:1 pbc="T T T"
Si      -1.39217599       1.35319402       1.31329221       0.00000000
Si       1.34009686       1.34846992      -1.37266373       0.00000000
Si      -1.39975084      -1.37080351      -1.31393407       0.00000000
Si       1.35259129      -1.31005810       1.42666702       0.00000000
Si       2.58457142      -2.73987866       0.00994874       0.00000000
Si       2.68379381       2.67568139       0.03448508       0.00000000
Si      -2.89268049      -0.00819387       2.47589455       0.00000000
Si      -0.05331717       2.64090224       2.74389788       0.00000000
Si       2.66378969      -0.02215440      -2.74631943       0.00000000
Si      -2.73373895       2.70011639      -0.07019552       0.00000000
