10
Lattice="16.290000149 0.0 0.0 0.0 16.290000149 0.0 0.0 0.0 29.1751946751" Properties=species:S:1:pos:R:3:initial_magmoms:R:1 pbc="T T T"
Si      -1.36272367      -1.36158337       1.33047640       0.00000000
Si       1.33561711      -1.44119260      -1.28974783       0.00000000
Si      -1.38497581       1.35625654      -1.33957906       0.00000000
Si       1.37889964       1.34350147       1.35930150       0.00000000
Si       2.69324201      -0.10169847      -2.60435585       0.00000000
Si       0.02106297      -2.69970914       2.68085029       0.00000000
Si      -0.02961522       2.75066775      -2.64538784       0.00000000
Si      -2.71256195       0.00332316       2.68665615       0.00000000
Si      -2.69778692      -2.71262711      -0.06374780       0.00000000
Si      -2.70588305       2.70831026       0.04813907       0.00000000
