10
Lattice="16.290000149 0.0 0.0 0.0 16.290000149 0.0 0.0 0.0 29.1751946751" Properties=species:S:1:pos:R:3:initial_magmoms:R:1 pbc="T T T"
Si       1.34040637       1.36290286       1.36461138       0.00000000
Si      -1.35110076       1.35905842      -1.35956407       0.00000000
Si      -1.35877335      -1.35180937       1.36253994       0.00000000
Si       1.36866952      -1.35294967      -1.35227027       0.00000000
Si      -2.68156647       2.70853832       0.03136333       0.00000000
Si       2.70720254       0.00539199       2.69257872       0.00000000
Si       0.00858483      -2.70754463      -2.70500735       0.00000000
Si       2.70878267       2.70651836       0.02158964       0.00000000
Si      -2.71086779      -2.70480791       0.00221731       0.00000000
Si       2.71696025      -2.71420724       0.01286626       0.00000000
