10
Lattice="16.290000149 0.0 0.0 0.0 16.290000149 0.0 0.0 0.0 29.1751946751" Properties=species:S:1:pos:R:3:initial_magmoms:R:1 pbc="T T T"
Si      -1.33770223      -1.44752941       1.25610883       0.00000000
Si       1.34403904      -1.36516717      -1.35086986       0.00000000
Si      -1.38756592       1.34249149      -1.34696039       0.00000000
Si       1.25783236       1.36793647       1.45555046       0.00000000
Si      -2.70001865      -0.07783362       2.51831528       0.00000000
Si       2.63669942       2.69472440       0.06619852       0.00000000
Si      -0.02717172       2.70596450      -2.68861089       0.00000000
Si       2.69198330      -0.01133784      -2.70809992       0.00000000
Si       2.68700294      -2.72285723       0.01829285       0.00000000
Si      -0.02692737      -2.71353935      -2.70605766       0.00000000
