10
Lattice="16.290000149 0.0 0.0 0.0 16.290000149 0.0 0.0 0.0 29.1751946751" Properties=species:S:1:pos:R:3:initial_magmoms:R:1 pbc="T T T"
Si       1.35092483       1.46184832      -1.22110793       0.00000000
Si       1.39309964      -1.33664338       1.36899349       0.00000000
Si      -1.35417631       1.45699390       1.29447421       0.00000000
Si      -1.21224056      -1.49248981      -1.40246036       0.00000000
Si      -2.67179297      -2.66839976       0.01497854       0.00000000
Si      -2.65884242       0.10347408       2.72367072       0.00000000
Si       2.78965764       0.27820062      -2.59350851       0.00000000
Si       0.04878366      -2.66571191       2.75089118       0.00000000
Si      -0.03500232       2.73509103      -2.73401625       0.00000000
Si       0.03988281       2.74914930       2.72025722       0.00000000
