10
Lattice="16.290000149 0.0 0.0 0.0 16.290000149 0.0 0.0 0.0 29.1751946751" Properties=species:S:1:pos:R:3:initial_magmoms:R:1 pbc="T T T"
Si       1.31979952      -1.44089938       1.27597714       0.00000000
Si      -1.34858395      -1.36166482      -1.34836080       0.00000000
Si       1.38864106       1.35980776      -1.31326304       0.00000000
Si      -1.29088477       1.36795276       1.41207942       0.00000000
Si       2.74558179      -0.05137866       2.45579284       0.00000000
Si       0.01871721       2.70154991      -2.66632104       0.00000000
Si      -2.66444129       2.71999019       0.06669450       0.00000000
Si      -2.71538012      -0.00415395      -2.67632813       0.00000000
Si      -0.06374277      -2.77666311       2.61666486       0.00000000
Si       2.74074366      -0.01036044      -2.66387032       0.00000000
