10
Lattice="16.290000149 0.0 0.0 0.0 16.290000149 0.0 0.0 0.0 29.1751946751" Properties=species:S:1:pos:R:3:initial_magmoms:R:1 pbc="T T T"
Si      -1.33709950       1.21633978       1.48793493       0.00000000
Si      -1.54282591      -1.31147533      -1.19002702       0.00000000
Si       1.38259747      -1.31813794       1.43057650       0.00000000
Si       0.77858056       1.49097973      -1.71494712       0.00000000
H        1.18635184      -2.10707894      -2.25582605       0.00000000
Si      -1.29155266       2.20657174      -2.55948148       0.00000000
Si      -0.17982531      -2.66465306      -2.52076600       0.00000000
Si      -2.59376224       0.22804371      -2.66492063       0.00000000
H       -0.63563581       3.72461079       0.05379906       0.00000000
Si       0.08216676       2.64785156       2.76452475       0.00000000
