10
Lattice="16.290000149 0.0 0.0 0.0 16.290000149 0.0 0.0 0.0 29.1751946751" Properties=species:S:1:pos:R:3:initial_magmoms:R:1 pbc="T T T"
Si      -1.37062106      -1.37212463      -1.32983455       0.00000000
Si       1.34770755       1.35364851      -1.37596053       0.00000000
Si       1.40592801      -1.33833917       1.33275207       0.00000000
Si      -1.39665248       1.33690239       1.34821492       0.00000000
Si      -0.01724459       2.69825771       2.68192977       0.00000000
Si       0.06894580      -2.68847067       2.70290674       0.00000000
Si      -2.70283357      -0.00586929      -2.70156468       0.00000000
Si      -2.70060184       2.71772426      -0.02646190       0.00000000
Si      -0.00089758      -2.71183053      -2.71005466       0.00000000
Si       2.70321475       2.72165015      -0.03845291       0.00000000
