10
Lattice="16.290000149 0.0 0.0 0.0 16.290000149 0.0 0.0 0.0 29.1751946751" Properties=species:S:1:pos:R:3:initial_magmoms:R:1 pbc="T T T"
Si       0.61304158      -1.30456186       0.44317121       0.00000000
Si      -1.51158984       1.47927862       0.62922142       0.00000000
H        2.01740249       0.34925760      -1.41240035       0.00000000
Si       1.11314458       1.24945930      -2.22180778       0.00000000
Si      -0.03023424       2.67638186      -0.75925527       0.00000000
Si      -2.82831413      -0.22486716      -0.50636468       0.00000000
Si      -1.61019321      -1.51209972      -2.11146719       0.00000000
Si      -0.21818826       1.61966584       2.65917312       0.00000000
Si      -0.23397327      -2.96580630      -0.95178238       0.00000000
Si       2.92109025      -1.21508740       0.08300343       0.00000000
