10
Lattice="16.290000149 0.0 0.0 0.0 16.290000149 0.0 0.0 0.0 29.1751946751" Properties=species:S:1:pos:R:3:initial_magmoms:R:1 pbc="T T T"
Si      -1.34609810       1.36106372      -1.35507109       0.00000000
Si       1.35687556       1.36289798       1.34979038       0.00000000
Si      -1.37605378      -1.34801380       1.35028636       0.00000000
Si       1.31753521      -1.37055916      -1.38911854       0.00000000
Si       0.01298313      -2.69737967       2.68012091       0.00000000
Si      -2.66075161      -0.02270826      -2.71860299       0.00000000
Si       2.70653465      -0.01140300      -2.69208274       0.00000000
Si      -0.02744865       2.71746524       2.68438049       0.00000000
Si      -2.69049339      -2.71437014      -0.04379197       0.00000000
Si       2.69985575      -2.71639010      -0.05356566       0.00000000
