10
Lattice="10.86 0.0 0.0 0.0 10.86 0.0 0.0 0.0 10.86" Properties=species:S:1:pos:R:3:initial_magmoms:R:1 pbc="T T T"
Si      -1.35750000       1.35750000      -1.35750000       0.00000000
Si       1.35750000       1.35750000       1.35750000       0.00000000
Si       1.35750000      -1.35750000      -1.35750000       0.00000000
Si      -1.35750000      -1.35750000       1.35750000       0.00000000
Si      -2.62801140       2.63970762       0.08793342       0.00000000
Si      -2.62500318      -2.75952600      -0.01200030       0.00000000
Si      -0.14372124      -2.67053916      -2.74333374       0.00000000
Si       0.00000000      -2.71500000       2.71500000       0.00000000
Si       2.71500000       0.00000000       2.71500000       0.00000000
Si       2.71500000       2.71500000       0.00000000       0.00000000
