10
Lattice="10.86 0.0 0.0 0.0 10.86 0.0 0.0 0.0 10.86" Properties=species:S:1:pos:R:3:initial_magmoms:R:1 pbc="T T T"
Si       1.22167398       1.24304646       1.38522558       0.00000000
Si       1.22167398      -1.47195354      -1.32977442       0.00000000
Si      -1.49332602      -1.47195354       1.38522558       0.00000000
Si      -0.02822514       2.53967616      -2.63597178       0.00000000
Si       2.57917398       2.60054646       0.02772558       0.00000000
Si      -2.79535314       2.41945596       0.20336436       0.00000000
Si       2.57917398      -0.11445354      -2.68727442       0.00000000
Si      -0.05172618       2.49863622       2.77941066       0.00000000
Si       2.57917398      -0.11445354       2.74272558       0.00000000
Si       2.57917398      -2.82945354       0.02772558       0.00000000
