10
Lattice="10.86 0.0 0.0 0.0 10.86 0.0 0.0 0.0 10.86" Properties=species:S:1:pos:R:3:initial_magmoms:R:1 pbc="T T T"
Si       1.38812520       1.36657896       1.32112986       0.00000000
Si      -1.32687480       1.36657896      -1.39387014       0.00000000
Si       1.38812520      -1.34842104      -1.39387014       0.00000000
Si      -1.23787710      -1.45742286       1.44229488       0.00000000
Si       2.60190396       0.05353980       2.65029612       0.00000000
Si      -2.58207360      -0.01248900       2.71078632       0.00000000
Si       0.03062520       2.72407896       2.67862986       0.00000000
Si      -2.68437480       2.72407896      -0.03637014       0.00000000
Si      -2.68437480       0.00907896      -2.75137014       0.00000000
Si      -2.82621726      -2.61961662      -0.07727976       0.00000000
