10
Lattice="10.86 0.0 0.0 0.0 10.86 0.0 0.0 0.0 10.86" Properties=species:S:1:pos:R:3:initial_magmoms:R:1 pbc="T T T"
Si      -1.46436240      -1.30329774       1.31574330       0.00000000
Si      -1.32397518       1.42958868      -1.41197376       0.00000000
Si       2.79535314      -2.41945596      -0.20336436       0.00000000
Si       0.03151572      -2.60920188       2.62729464       0.00000000
Si       2.74362696       0.07918026       2.57604630       0.00000000
Si       0.03452394       2.85156450       2.52736092       0.00000000
Si      -0.16762410      -2.53449594      -2.84491818       0.00000000
Si      -2.91837522       0.13504410       2.54015400       0.00000000
Si       2.51580588       2.94055134      -0.20397252       0.00000000
Si      -2.66817168       2.87452254      -0.14348232       0.00000000
