10
Lattice="10.86 0.0 0.0 0.0 10.86 0.0 0.0 0.0 10.86" Properties=species:S:1:pos:R:3:initial_magmoms:R:1 pbc="T T T"
Si       1.66185150       0.78950028       1.36022586       0.00000000
Si      -1.30017006       1.10901234      -1.53250890       0.00000000
Si      -1.30017006      -1.60598766       1.18249110       0.00000000
Si       1.41482994      -1.60598766      -1.53250890       0.00000000
Si      -0.01193514       2.30102766       2.56995384       0.00000000
Si       2.46451410      -2.43669078       0.32323704       0.00000000
Si       2.56493652       2.49598638      -0.11476848       0.00000000
Si      -2.65767006       2.46651234      -0.17500890       0.00000000
Si      -2.65767006      -0.24848766       2.53999110       0.00000000
Si       0.05732994       2.46651234      -2.89000890       0.00000000
