10
Lattice="10.86 0.0 0.0 0.0 10.86 0.0 0.0 0.0 10.86" Properties=species:S:1:pos:R:3:initial_magmoms:R:1 pbc="T T T"
Si       1.23621552      -1.30902096      -1.28810460       0.00000000
Si       1.23621552       1.40597904       1.42689540       0.00000000
Si      -1.47878448       1.40597904      -1.28810460       0.00000000
Si      -0.16711368      -2.46675126      -2.64192306       0.00000000
Si       2.59371552       0.04847904      -2.64560460       0.00000000
Si       2.59371552      -2.66652096       0.06939540       0.00000000
Si       2.59371552       2.76347904       0.06939540       0.00000000
Si       2.59371552       0.04847904       2.78439540       0.00000000
Si      -0.12128448       2.76347904      -2.64560460       0.00000000
Si      -2.85833028       0.01346640       2.65709448       0.00000000
