10
Lattice="10.86 0.0 0.0 0.0 10.86 0.0 0.0 0.0 10.86" Properties=species:S:1:pos:R:3:initial_magmoms:R:1 pbc="T T T"
Si      -1.37093382       1.23623724       1.24529448       0.00000000
Si       1.34406618      -1.47876276       1.24529448       0.00000000
Si      -1.37093382      -1.47876276      -1.46970552       0.00000000
Si      -0.01343382       2.59373724       2.60279448       0.00000000
Si       2.70156618      -0.12126276       2.60279448       0.00000000
Si      -2.72843382       2.59373724      -0.11220552       0.00000000
Si      -2.72843382      -0.12126276       2.60279448       0.00000000
Si       2.60416284      -0.06928680      -2.79198654       0.00000000
Si      -0.01343382      -2.83626276       2.60279448       0.00000000
Si       2.70156618      -2.83626276      -0.11220552       0.00000000
