10
Lattice="10.86 0.0 0.0 0.0 10.86 0.0 0.0 0.0 10.86" Properties=species:S:1:pos:R:3:initial_magmoms:R:1 pbc="T T T"
Si       1.35750000       1.35750000       1.35750000       0.00000000
Si      -1.35750000      -1.35750000       1.35750000       0.00000000
Si       1.35750000      -1.35750000      -1.35750000       0.00000000
Si      -1.35750000       1.35750000      -1.35750000       0.00000000
Si      -0.08281836       2.56236270       2.59343316       0.00000000
Si       0.13439250      -2.60882178      -2.56555554       0.00000000
Si       0.02141592      -2.57794680       2.67129936       0.00000000
Si      -0.03862902       2.70797358      -2.59390014       0.00000000
Si      -2.85969864      -2.50173132       0.22015392       0.00000000
Si       2.71500000       0.00000000      -2.71500000       0.00000000
