10
Lattice="10.86 0.0 0.0 0.0 10.86 0.0 0.0 0.0 10.86" Properties=species:S:1:pos:R:3:initial_magmoms:R:1 pbc="T T T"
Si      -1.18864872       1.46880414      -1.11783066       0.00000000
Si       1.52635128      -1.24619586      -1.11783066       0.00000000
Si       1.52635128       1.46880414       1.59716934       0.00000000
Si      -2.54614872       0.11130414      -2.47533066       0.00000000
Si       0.16885128      -2.60369586      -2.47533066       0.00000000
Si      -2.58477774      -2.61072228       0.36076920       0.00000000
Si       0.16885128       2.82630414      -2.47533066       0.00000000
Si       2.88385128       0.11130414      -2.47533066       0.00000000
Si      -2.41175622       2.93248236       0.38911380       0.00000000
Si       2.88385128      -2.60369586       0.23966934       0.00000000
