10
Lattice="10.86 0.0 0.0 0.0 10.86 0.0 0.0 0.0 10.86" Properties=species:S:1:pos:R:3:initial_magmoms:R:1 pbc="T T T"
Si      -1.23485802      -1.30382988       1.23512952       0.00000000
Si      -1.23485802       1.41117012      -1.47987048       0.00000000
Si       1.48014198       1.41117012       1.23512952       0.00000000
Si       1.43601780      -1.37220444      -1.42268172       0.00000000
Si      -2.59235802       0.05367012       2.59262952       0.00000000
Si      -2.59235802      -2.66132988      -0.12237048       0.00000000
Si       0.12264198      -2.66132988       2.59262952       0.00000000
Si       0.15703560      -2.44605210      -2.84061762       0.00000000
Si      -2.59235802       2.76867012      -0.12237048       0.00000000
Si       0.12264198       2.76867012       2.59262952       0.00000000
