10
Lattice="10.86 0.0 0.0 0.0 10.86 0.0 0.0 0.0 10.86" Properties=species:S:1:pos:R:3:initial_magmoms:R:1 pbc="T T T"
Si      -1.25994462      -1.28764848       1.27854780       0.00000000
Si       1.45505538       1.42735152       1.27854780       0.00000000
Si       1.45505538      -1.28764848      -1.43645220       0.00000000
Si      -2.61744462      -2.64514848      -0.07895220       0.00000000
Si       0.09755538      -2.64514848       2.63604780       0.00000000
Si      -2.57199552       0.03324246       2.71430496       0.00000000
Si      -2.49106680      -0.03294924      -2.88365580       0.00000000
Si       0.09755538      -2.64514848      -2.79395220       0.00000000
Si       2.81255538       0.06985152       2.63604780       0.00000000
Si       2.81255538      -2.64514848      -0.07895220       0.00000000
