10
Lattice="10.86 0.0 0.0 0.0 10.86 0.0 0.0 0.0 10.86" Properties=species:S:1:pos:R:3:initial_magmoms:R:1 pbc="T T T"
Si       1.47615636       1.18289292      -1.21725396       0.00000000
Si      -1.23884364       1.18289292       1.49774604       0.00000000
Si       1.47615636      -1.53210708       1.49774604       0.00000000
Si      -2.34611838      -0.00886176      -2.53882908       0.00000000
Si       0.11865636       2.54039292      -2.57475396       0.00000000
Si      -2.59634364       2.54039292       0.14024604       0.00000000
Si       2.83365636       2.54039292       0.14024604       0.00000000
Si       0.11865636       2.54039292       2.85524604       0.00000000
Si       2.83365636      -0.17460708      -2.57475396       0.00000000
Si      -2.59634364      -0.17460708       2.85524604       0.00000000
