10
Lattice="16.28999089631971 0.0 0.0 0.0 16.28999089631971 0.0 0.0 0.0 34.46413024517268" Properties=species:S:1:pos:R:3:initial_magmoms:R:1 pbc="T T T"
Si      -1.58235033       0.33821298      -1.75126129       0.00000000
Si       1.04894568       1.64115234       1.56499088       0.00000000
Si       1.80639810      -1.08739008      -1.34186166       0.00000000
Si      -1.57543034      -1.18418526       1.58689284       0.00000000
Si      -0.60383772       2.76239304      -2.12895391       0.00000000
Si       2.61641835      -2.64404619       0.27485159       0.00000000
Si      -2.70919316       2.37438153      -1.38177115       0.00000000
Si      -2.49997743      -3.04776126       0.12910270       0.00000000
Si       2.41373817       0.29261727       3.12617205       0.00000000
Si      -0.29237292      -2.41943967       3.15027627       0.00000000
