10
Lattice="16.28999089631971 0.0 0.0 0.0 16.28999089631971 0.0 0.0 0.0 34.46413024517268" Properties=species:S:1:pos:R:3:initial_magmoms:R:1 pbc="T T T"
Si       1.99207152      -1.29982960       0.19355066       0.00000000
Si       0.72547515       2.29969188       0.24004280       0.00000000
Si      -1.38272778      -0.06340068       2.08266855       0.00000000
Si      -0.32444793      -0.56337336      -2.49589371       0.00000000
Si       0.94294665      -2.95890650      -1.28661563       0.00000000
Si       1.97398962      -1.73500880       2.50006387       0.00000000
Si       0.33241374      -0.53237349       3.67470548       0.00000000
Si      -2.22812177       1.18390833      -2.82306188       0.00000000
Si      -0.96858711       3.61048302      -0.87580297       0.00000000
Si      -3.21651426      -1.58210761       1.79775343       0.00000000
