10
Lattice="16.28999089631971 0.0 0.0 0.0 16.28999089631971 0.0 0.0 0.0 34.46413024517268" Properties=species:S:1:pos:R:3:initial_magmoms:R:1 pbc="T T T"
Si       2.05853472       0.53149383       0.93435756       0.00000000
Si      -0.56526300      -1.97460605       1.09716620       0.00000000
Si       0.01808190       0.43517920      -2.30651321       0.00000000
Si      -1.64157588       1.20263531       1.17464161       0.00000000
Si      -1.89729630      -0.75684073       2.58581067       0.00000000
Si       3.10140423      -1.65774926       0.73653334       0.00000000
Si      -1.97398962       1.73500880      -2.50006387       0.00000000
Si       1.38043089      -2.49694490       2.35603819       0.00000000
Si      -1.35586557      -3.39444245      -0.59302462       0.00000000
Si       2.53184067      -2.26771202      -1.50901279       0.00000000
