10
Lattice="16.28999089631971 0.0 0.0 0.0 16.28999089631971 0.0 0.0 0.0 34.46413024517268" Properties=species:S:1:pos:R:3:initial_magmoms:R:1 pbc="T T T"
Si       1.71514152      -0.46897281       1.59203692       0.00000000
Si      -1.83378648      -1.51870693      -0.28491512       0.00000000
Si      -1.03280555       2.13770412       0.42707974       0.00000000
Si       1.38272778       0.06340068      -2.08266855       0.00000000
Si       2.10820293       2.36309256      -1.84262575       0.00000000
Si      -1.80235003       1.81525986       2.63230281       0.00000000
Si       2.34341424       1.70065971       2.28414597       0.00000000
Si      -3.29845526      -0.43686522      -1.74640185       0.00000000
Si       3.35671740      -1.67160812       0.41739531       0.00000000
Si      -2.51184374      -2.09609457       2.00815706       0.00000000
