10
Lattice="16.28999089631971 0.0 0.0 0.0 16.28999089631971 0.0 0.0 0.0 34.46413024517268" Properties=species:S:1:pos:R:3:initial_magmoms:R:1 pbc="T T T"
Si      -1.34081361      -1.35244467       1.36998441       0.00000000
Si       1.35615879      -1.35542574      -1.35888695       0.00000000
Si      -1.35640314       1.36052451      -1.35936945       0.00000000
Si       1.36273995       1.35018036       1.38428703       0.00000000
Si       2.71269225      -2.70925506       0.00516962       0.00000000
Si      -0.00078192      -2.71238274      -2.71549927       0.00000000
Si      -2.71593396      -2.71397916      -0.00093053       0.00000000
Si       2.71467963       0.00252495      -2.71570605       0.00000000
Si      -2.71536381       0.00182448      -2.71601623       0.00000000
Si      -2.71637379       2.71608057       0.00299838       0.00000000
