10
Lattice="16.28999089631971 0.0 0.0 0.0 16.28999089631971 0.0 0.0 0.0 34.46413024517268" Properties=species:S:1:pos:R:3:initial_magmoms:R:1 pbc="T T T"
Si       1.31569443      -1.36142046      -1.40975604       0.00000000
Si      -1.37917656       1.36611198      -1.42154277       0.00000000
Si       0.10782351      -0.40951431       2.45767297       0.00000000
Si      -2.00971359      -0.89375085       1.22220213       0.00000000
Si       1.91708865       0.98023446       1.61347362       0.00000000
Si      -2.48433903       2.75291226       0.10287549       0.00000000
Si       2.76687279      -2.53938294       0.14819584       0.00000000
Si      -3.59018568       0.87648345       1.06921577       0.00000000
Si       2.75336838       2.70145215       0.01264834       0.00000000
Si       2.66747121       0.00886176      -2.79421539       0.00000000
