10
Lattice="16.28999089631971 0.0 0.0 0.0 16.28999089631971 0.0 0.0 0.0 34.46413024517268" Properties=species:S:1:pos:R:3:initial_magmoms:R:1 pbc="T T T"
Si      -0.62827272      -2.16963252      -0.69210905       0.00000000
Si      -1.95134652       0.13592376       1.34327469       0.00000000
Si       1.88566524      -0.18857304       1.49698480       0.00000000
Si      -0.00231318       1.59901011      -1.83063223       0.00000000
Si      -1.40208030      -1.26319176       3.16405017       0.00000000
Si      -2.34341424      -1.70065971      -2.28414597       0.00000000
Si       3.37694958       1.53683118       0.60436333       0.00000000
Si       0.81790461      -0.31223043       3.66188481       0.00000000
Si      -2.12920074       2.52796365      -1.97817325       0.00000000
Si      -3.37621979       0.43704441      -1.85706623       0.00000000
