10
Lattice="16.28999089631971 0.0 0.0 0.0 16.28999089631971 0.0 0.0 0.0 34.46413024517268" Properties=species:S:1:pos:R:3:initial_magmoms:R:1 pbc="T T T"
Si       1.38135942      -1.32369282       1.41143099       0.00000000
Si      -1.34495127       1.39751910       1.40109864       0.00000000
Si      -1.14227109      -1.53914436      -1.45022181       0.00000000
Si       1.41094206       1.23152400      -1.53893253       0.00000000
Si      -1.95229134       0.01751175      -3.06693506       0.00000000
Si       2.62295064       2.58660765       0.00267097       0.00000000
Si      -2.71389771      -2.67496461       0.06816319       0.00000000
Si       2.68179012      -2.76780132      -0.02443853       0.00000000
Si      -2.70974376       2.74605417      -0.16008253       0.00000000
Si       0.02749752      -2.68690518       2.78219774       0.00000000
