10
Lattice="16.28999089631971 0.0 0.0 0.0 16.28999089631971 0.0 0.0 0.0 34.46413024517268" Properties=species:S:1:pos:R:3:initial_magmoms:R:1 pbc="T T T"
Si      -1.35177678       1.34957763       1.35833552       0.00000000
Si      -1.35586557      -1.35824391      -1.35637107       0.00000000
Si       1.35837423       1.35581670      -1.35650892       0.00000000
Si       1.35780408      -1.35523026       1.35988641       0.00000000
Si       2.70863604       0.00190593       2.70843412       0.00000000
Si      -2.68884369       0.00201996       2.73255902       0.00000000
Si       2.71350675       2.71308321       0.00110285       0.00000000
Si       0.00022806       2.71443528      -2.71308678       0.00000000
Si      -2.71311579      -2.71516833       0.00068928       0.00000000
Si      -2.71489140      -0.00039096      -2.71339695       0.00000000
