10
Lattice="16.28999089631971 0.0 0.0 0.0 16.28999089631971 0.0 0.0 0.0 34.46413024517268" Properties=species:S:1:pos:R:3:initial_magmoms:R:1 pbc="T T T"
Si      -1.33706691      -1.34755767       1.37422350       0.00000000
Si       1.35177678      -1.34957763      -1.35833552       0.00000000
Si      -1.36129014       1.36594908      -1.35781856       0.00000000
Si       1.35153243       1.36111095       1.38070276       0.00000000
Si      -0.19274328       2.57605173       2.70636627       0.00000000
Si      -2.44222938       0.03924261       2.89864176       0.00000000
Si       2.70958086      -2.70480789       0.00155089       0.00000000
Si      -0.00408879      -2.70782154      -2.71470659       0.00000000
Si       2.71015101       0.00623907      -2.71484445       0.00000000
Si      -2.72130966      -2.70918990       0.00472159       0.00000000
