10
Lattice="16.28999089631971 0.0 0.0 0.0 16.28999089631971 0.0 0.0 0.0 34.46413024517268" Properties=species:S:1:pos:R:3:initial_magmoms:R:1 pbc="T T T"
Si       1.31357673       1.92650427      -0.10211727       0.00000000
Si       1.55307231      -1.75865211      -0.27509284       0.00000000
Si      -0.68570311       0.46551933      -2.21494196       0.00000000
Si      -1.64993917       0.41298408       1.68367710       0.00000000
Si       0.20224035      -3.22570412       0.88727953       0.00000000
Si      -0.38786653       3.49124022      -0.34147079       0.00000000
Si      -2.11182650      -2.86469929       0.06086369       0.00000000
Si      -2.16625139       2.71002069       1.05966920       0.00000000
Si       1.38373776      -0.06312375      -3.38244949       0.00000000
Si       1.36868580      -2.25949468      -2.59839009       0.00000000
