10
Lattice="16.28999089631971 0.0 0.0 0.0 16.28999089631971 0.0 0.0 0.0 34.46413024517268" Properties=species:S:1:pos:R:3:initial_magmoms:R:1 pbc="T T T"
Si       1.45775952      -0.83808792      -1.60685651       0.00000000
Si      -1.97441316      -1.29932298      -0.12441558       0.00000000
Si       0.20984778       2.31779007      -0.51068977       0.00000000
Si       1.22425866      -0.58575582       1.98685822       0.00000000
Si       2.94423831       1.01491587      -1.18663513       0.00000000
Si       2.09696283      -2.95495713      -0.86604961       0.00000000
Si      -1.73584611       2.84012892      -1.76956176       0.00000000
Si      -1.42522839      -3.48066801       0.59512693       0.00000000
Si       2.53983906      -2.51475246       1.43701718       0.00000000
Si       0.31485312      -1.15637823      -3.67429191       0.00000000
