10
Lattice="16.28999089631971 0.0 0.0 0.0 16.28999089631971 0.0 0.0 0.0 34.46413024517268" Properties=species:S:1:pos:R:3:initial_magmoms:R:1 pbc="T T T"
Si       1.23846354      -1.29865183      -1.50029336       0.00000000
Si      -1.35932720      -1.37381715       1.35915374       0.00000000
Si       1.47092184       1.34345259       1.31995077       0.00000000
Si      -1.00181545       1.24708095      -1.78479491       0.00000000
Si       1.12682817       2.49577461      -2.03714141       0.00000000
Si      -2.39268986       2.84092713      -0.50134998       0.00000000
Si      -2.62908287       0.05553261       2.70801852       0.00000000
Si       2.49310305       0.28789317      -2.83874307       0.00000000
Si       0.09557343      -2.69427545       2.70172192       0.00000000
Si       2.91139767       2.50427799      -0.31393394       0.00000000
