10
Lattice="16.28999089631971 0.0 0.0 0.0 16.28999089631971 0.0 0.0 0.0 34.46413024517268" Properties=species:S:1:pos:R:3:initial_magmoms:R:1 pbc="T T T"
Si       1.37723805       1.34352807       1.34579057       0.00000000
Si       1.35553977      -1.35838250      -1.36164408       0.00000000
Si      -1.35894438       1.35830635      -1.36105819       0.00000000
Si      -1.37187864      -1.38372974       1.37108726       0.00000000
Si       0.00548973       2.57994395       2.74799896       0.00000000
Si       2.64499101      -0.09242144       2.73045671       0.00000000
Si      -2.71194291      -2.71276568      -0.00444588       0.00000000
Si       2.71265967      -2.71428065      -0.00641033       0.00000000
Si       2.71282257       2.71593287      -0.00172321       0.00000000
Si       2.71296918       0.00058471      -2.71849765       0.00000000
