10
Lattice="16.28999089631971 0.0 0.0 0.0 16.28999089631971 0.0 0.0 0.0 34.46413024517268" Properties=species:S:1:pos:R:3:initial_magmoms:R:1 pbc="T T T"
Si      -0.56615895       0.15439662       2.24423649       0.00000000
Si       0.71221509       2.27923164      -0.28856832       0.00000000
Si       2.12677353      -1.09396147      -0.43107758       0.00000000
Si      -2.14192323      -1.17209482      -0.27223232       0.00000000
Si       0.86363064       1.85596857      -2.54796904       0.00000000
Si      -1.65415176      -1.41507646      -2.53053018       0.00000000
Si       2.57966811       1.96099020       1.20510792       0.00000000
Si       1.10866482       1.63489698       3.08850476       0.00000000
Si      -2.83393872       0.92957256       2.27036031       0.00000000
Si       2.01797262      -3.12525998       0.71461414       0.00000000
