10
Lattice="16.28999089631971 0.0 0.0 0.0 16.28999089631971 0.0 0.0 0.0 34.46413024517268" Properties=species:S:1:pos:R:3:initial_magmoms:R:1 pbc="T T T"
Si       1.51549128      -1.09514642       1.62282275       0.00000000
Si      -1.22300433       1.73243010       1.35033984       0.00000000
Si       1.43128827       0.68430706      -2.10903363       0.00000000
Si      -2.44405386      -1.10246063      -0.44858537       0.00000000
Si      -0.65410866       1.46312382      -2.81444584       0.00000000
Si       0.18000450      -3.35434136      -1.01620991       0.00000000
Si      -0.27100044      -2.15064068       2.85654866       0.00000000
Si      -2.40950277      -0.14829764      -2.79090683       0.00000000
Si       2.57111586       0.68706822       2.89563101       0.00000000
Si      -2.53811232       3.11703123      -0.05793424       0.00000000
