10
Lattice="16.28999089631971 0.0 0.0 0.0 16.28999089631971 0.0 0.0 0.0 34.46413024517268" Properties=species:S:1:pos:R:3:initial_magmoms:R:1 pbc="T T T"
Si       1.35777150       1.34403903      -1.39028379       0.00000000
Si      -1.36067112      -1.36466217      -1.38656166       0.00000000
Si       1.36397799      -1.50376248       1.35850785       0.00000000
Si      -1.25944506       1.51681077       1.55050762       0.00000000
Si      -2.71062342       2.69477325      -0.00744426       0.00000000
Si       2.70260874       2.70743058      -0.01568119       0.00000000
Si      -2.72818404      -2.72032737       0.00737533       0.00000000
Si      -0.00146610       2.70444951      -2.75003235       0.00000000
Si       2.71402803      -0.01124010      -2.75068716       0.00000000
Si      -2.71720458      -0.01083285      -2.75061824       0.00000000
