10
Lattice="16.28999089631971 0.0 0.0 0.0 16.28999089631971 0.0 0.0 0.0 34.46413024517268" Properties=species:S:1:pos:R:3:initial_magmoms:R:1 pbc="T T T"
Si       1.35371529       1.35055503       1.38121283       0.00000000
Si      -1.36495376      -1.36319607       1.37914498       0.00000000
Si       1.36972836      -1.41200091      -1.38399064       0.00000000
Si      -1.34908078       1.40856372      -1.44500597       0.00000000
Si       2.71790505       2.69347005      -0.00361529       0.00000000
Si      -2.73027635      -2.69992089       0.00407711       0.00000000
Si      -2.73822617       2.70514998      -0.00357738       0.00000000
Si      -0.00490329       2.70847314       2.73903139       0.00000000
Si       2.70941796      -0.00575037       2.74020317       0.00000000
Si       2.72712519      -2.73145833       0.01227268       0.00000000
