10
Lattice="16.28999089631971 0.0 0.0 0.0 16.28999089631971 0.0 0.0 0.0 34.46413024517268" Properties=species:S:1:pos:R:3:initial_magmoms:R:1 pbc="T T T"
Si       1.30313484      -1.96432965       0.04611303       0.00000000
Si       0.82502334       1.93795614       1.07383397       0.00000000
Si      -2.40503931      -0.43191306       0.07995683       0.00000000
Si       0.54297828       0.77286276      -2.29865538       0.00000000
Si      -0.37168893      -3.44483001      -0.79815524       0.00000000
Si       0.90668511      -1.31999499      -3.33096005       0.00000000
Si       2.77413813      -1.63823643      -1.83728381       0.00000000
Si      -0.54020898       3.69357831       0.33188976       0.00000000
Si      -1.53953532       1.60112781      -3.02326412       0.00000000
Si      -2.63946870      -2.66965407      -0.77203141       0.00000000
