10
Lattice="16.28999089631971 0.0 0.0 0.0 16.28999089631971 0.0 0.0 0.0 34.46413024517268" Properties=species:S:1:pos:R:3:initial_magmoms:R:1 pbc="T T T"
Si       0.35259705       0.10430487      -2.31257890       0.00000000
Si      -0.10710675       2.17323261       0.95234784       0.00000000
Si       1.89439668      -1.35101115       0.52778399       0.00000000
Si      -2.12112090      -1.10226285       0.47019439       0.00000000
Si      -2.44491723       2.35349775       0.72891676       0.00000000
Si       0.88528005      -3.45181842       0.72157590       0.00000000
Si      -1.35335691      -3.17211912       1.24904971       0.00000000
Si      -1.01263527       1.85992704      -3.05452311       0.00000000
Si      -2.88779346       1.91329308      -1.57415003       0.00000000
Si      -3.28246758       0.48166272       1.87491866       0.00000000
