10
Lattice="16.28999089631971 0.0 0.0 0.0 16.28999089631971 0.0 0.0 0.0 34.46413024517268" Properties=species:S:1:pos:R:3:initial_magmoms:R:1 pbc="T T T"
Si       0.76776399      -2.06985627       0.77885531       0.00000000
Si      -1.67057208      -0.59564385      -1.57390878       0.00000000
Si      -1.16134668       1.58392557       1.40472427       0.00000000
Si       2.12112090       1.10226285      -0.47019439       0.00000000
Si      -0.32379633       3.45576060       0.25872237       0.00000000
Si      -2.63603151       1.52945181      -2.02842198       0.00000000
Si      -0.76667256       3.01555593      -2.04434442       0.00000000
Si       0.81059040      -1.87411563       3.13847777       0.00000000
Si       3.00640095      -2.34955557       0.25138151       0.00000000
Si       2.01401415       3.27549546       0.48215345       0.00000000
