10
Lattice="16.28999089631971 0.0 0.0 0.0 16.28999089631971 0.0 0.0 0.0 34.46413024517268" Properties=species:S:1:pos:R:3:initial_magmoms:R:1 pbc="T T T"
Si      -0.04282641      -0.19574064      -2.35962246       0.00000000
Si      -1.54810386      -1.76208930       0.37631405       0.00000000
Si       2.21674320      -0.46884249       0.72367821       0.00000000
Si      -0.06902073       2.06311221       1.20765826       0.00000000
Si       2.90313864      -1.81138284      -1.04605587       0.00000000
Si       2.19581055      -0.47543994      -2.88709627       0.00000000
Si      -0.60090552      -3.48646888      -0.98701878       0.00000000
Si      -0.81059040       1.87411563      -3.13847777       0.00000000
Si      -0.31809483       1.34358291       3.50252259       0.00000000
Si      -1.59063705      -2.34800802       2.61979232       0.00000000
