10
Lattice="16.28999089631971 0.0 0.0 0.0 16.28999089631971 0.0 0.0 0.0 34.46413024517268" Properties=species:S:1:pos:R:3:initial_magmoms:R:1 pbc="T T T"
Si       1.70829972      -1.65407031       0.23763621       0.00000000
Si      -1.90641870      -0.88809822       1.19828199       0.00000000
Si       0.76968621       1.91686059       1.29988919       0.00000000
Si       0.78077970       0.21155823      -2.32601991       0.00000000
Si       2.12879349       0.58617936       2.70858028       0.00000000
Si      -0.60331644      -2.15664939       2.71122369       0.00000000
Si       3.56918787      -0.56193984       1.17604572       0.00000000
Si      -1.18407123       0.92901870      -3.48966746       0.00000000
Si       0.76861107      -3.53862783       1.33767913       0.00000000
Si       2.08036332       2.42576019      -2.22945137       0.00000000
