10
Lattice="16.28999089631971 0.0 0.0 0.0 16.28999089631971 0.0 0.0 0.0 34.46413024517268" Properties=species:S:1:pos:R:3:initial_magmoms:R:1 pbc="T T T"
Si       1.34006427       1.32903594       1.37553314       0.00000000
Si       1.35031068      -1.36014984      -1.35675017       0.00000000
Si      -1.36260963       1.35399222      -1.35668125       0.00000000
Si      -1.36344042      -1.36254447       1.38118526       0.00000000
Si      -0.13341510       2.53140084       2.79842001       0.00000000
Si       2.71005327      -0.00180819      -2.71394838       0.00000000
Si       2.71194291       2.71276568       0.00444588       0.00000000
Si       2.70870120      -2.71808424       0.00220571       0.00000000
Si      -0.00532683       2.71328967      -2.71401731       0.00000000
Si      -0.00482184      -2.71741635      -2.71436195       0.00000000
