10
Lattice="16.28999089631971 0.0 0.0 0.0 16.28999089631971 0.0 0.0 0.0 34.46413024517268" Properties=species:S:1:pos:R:3:initial_magmoms:R:1 pbc="T T T"
Si       1.37476197      -1.24864479      -1.43760307       0.00000000
Si       0.97365330       1.69979634       1.32528441       0.00000000
Si      -0.67210911      -1.97206740       1.25191023       0.00000000
Si      -1.36695906       1.43259147      -1.41819975       0.00000000
Si       1.36622601       0.32632128       3.25110662       0.00000000
Si      -0.88523118       3.39149070       1.24122634       0.00000000
Si      -2.62651815      -2.63231739       0.01516423       0.00000000
Si       2.64991059       2.72389977      -0.05883030       0.00000000
Si       2.77602777      -2.61043992      -0.14006230       0.00000000
Si       0.00167787      -2.61452871      -2.79152718       0.00000000
