10
Lattice="16.28999089631971 0.0 0.0 0.0 16.28999089631971 0.0 0.0 0.0 34.46413024517268" Properties=species:S:1:pos:R:3:initial_magmoms:R:1 pbc="T T T"
Si       0.93956226      -1.03762154      -1.86877099       0.00000000
Si      -0.88373250      -1.84972691       1.24298471       0.00000000
Si       1.90366473       0.89175695       1.29788954       0.00000000
Si      -1.10131803      -0.25278578      -2.52614017       0.00000000
Si      -2.06713584      -0.41650256       2.67063108       0.00000000
Si       0.63390906       2.32110671       2.64675432       0.00000000
Si      -2.47779045       2.79196916       0.17978396       0.00000000
Si      -3.41747910       0.90741164       1.27982688       0.00000000
Si      -2.64236832      -2.87542676      -0.11757862       0.00000000
Si       3.26299193       2.26557410      -0.06126420       0.00000000
