10
Lattice="16.28999089631971 0.0 0.0 0.0 16.28999089631971 0.0 0.0 0.0 34.46413024517268" Properties=species:S:1:pos:R:3:initial_magmoms:R:1 pbc="T T T"
Si       1.35718506      -1.35697983      -1.35716374       0.00000000
Si      -1.35782037       1.35729159      -1.35747392       0.00000000
Si       1.35738054       1.35848564       1.35716374       0.00000000
Si      -1.35742941      -1.35896721       1.35685357       0.00000000
Si      -0.00030951      -2.71486536       2.71208732       0.00000000
Si      -0.00013032       2.71399609      -2.71381052       0.00000000
Si       2.71481087      -2.71437666       0.00013786       0.00000000
Si       2.71520878       0.00119541      -2.71432749       0.00000000
Si      -2.71485882      -2.71515858       0.00010339       0.00000000
Si      -2.71495656       2.71510381       0.00013786       0.00000000
