10
Lattice="16.28999089631971 0.0 0.0 0.0 16.28999089631971 0.0 0.0 0.0 34.46413024517268" Properties=species:S:1:pos:R:3:initial_magmoms:R:1 pbc="T T T"
Si      -1.63066158      -1.15457656      -1.12125664       0.00000000
Si      -1.17776700       1.90037511       0.51492886       0.00000000
Si       1.46466878      -1.08184171       1.46148672       0.00000000
Si      -0.27271089      -1.21210306      -3.14130383       0.00000000
Si       0.67010544       3.31392357       0.62559324       0.00000000
Si       1.76549784      -2.96933210      -0.27068143       0.00000000
Si      -1.73946249      -3.18587507       0.02443508       0.00000000
Si       3.29845526       0.43686522       1.74640185       0.00000000
Si      -3.75743511      -0.06061509      -0.69017906       0.00000000
Si      -3.04522002       2.21861655      -0.97874738       0.00000000
