10
Lattice="16.28999089631971 0.0 0.0 0.0 16.28999089631971 0.0 0.0 0.0 34.46413024517268" Properties=species:S:1:pos:R:3:initial_magmoms:R:1 pbc="T T T"
Si      -0.52474977       1.23624810       1.92423686       0.00000000
Si       2.30277069      -0.37186812       0.45754605       0.00000000
Si      -0.57932127       0.89008560      -2.13763887       0.00000000
Si      -1.57696974      -1.74721327       0.45513356       0.00000000
Si       2.37223125      -0.41542758       2.89319642       0.00000000
Si       0.18257832      -0.09969480       3.76527726       0.00000000
Si       2.85606054      -2.34342564      -0.78140566       0.00000000
Si      -2.27326950      -2.52224260      -1.66789252       0.00000000
Si      -2.25414504      -0.59041476      -2.98190714       0.00000000
Si       0.48436686       3.33705537       1.73044495       0.00000000
