10
Lattice="16.28999089631971 0.0 0.0 0.0 16.28999089631971 0.0 0.0 0.0 34.46413024517268" Properties=species:S:1:pos:R:3:initial_magmoms:R:1 pbc="T T T"
Si      -0.90999198      -2.13583291       0.47501937       0.00000000
Si      -0.36766530       0.05069138      -2.37881899       0.00000000
Si      -1.20809898       1.57138732       1.43749968       0.00000000
Si       2.31406685      -0.36100483       0.82641584       0.00000000
Si       2.11182650       2.86469929      -0.06086369       0.00000000
Si      -1.58348574       0.03886566       3.23328865       0.00000000
Si       2.59021493      -2.60752615       0.13427233       0.00000000
Si       0.46188733       3.27768337       1.62281341       0.00000000
Si      -2.62086552      -1.68021790       2.00705421       0.00000000
Si       1.59818162      -0.68568082      -3.33805966       0.00000000
