10
Lattice="16.28999089631971 0.0 0.0 0.0 16.28999089631971 0.0 0.0 0.0 34.46413024517268" Properties=species:S:1:pos:R:3:initial_magmoms:R:1 pbc="T T T"
Si      -0.01733256       1.03102668      -2.14928776       0.00000000
Si      -1.73931588      -1.62695561       0.45223857       0.00000000
Si       2.09205954      -1.25187021      -0.14485282       0.00000000
Si      -0.58731966       2.12599161       1.79320416       0.00000000
Si      -0.93418263      -3.34968731      -0.95183088       0.00000000
Si       1.71667278      -2.78439187       1.65093615       0.00000000
Si       3.76204585       0.45442584       0.04046091       0.00000000
Si       1.30513851       2.99529117      -2.00484851       0.00000000
Si      -2.55217059       2.84345208       0.62955662       0.00000000
Si      -3.82471281      -0.84813885      -0.25317364       0.00000000
