10
Lattice="16.28999089631971 0.0 0.0 0.0 16.28999089631971 0.0 0.0 0.0 34.46413024517268" Properties=species:S:1:pos:R:3:initial_magmoms:R:1 pbc="T T T"
Si       1.34161182       1.34315937       1.37574681       0.00000000
Si      -1.35910728       1.33068123      -1.40869109       0.00000000
Si      -1.37002158      -1.37751498       1.36861273       0.00000000
Si       1.44039438      -1.14811920      -1.53253457       0.00000000
Si      -0.42049377      -2.24024967      -2.47094408       0.00000000
Si      -2.12879349      -0.58617936      -2.70858028       0.00000000
Si       2.68325591       2.69395875      -0.01162820       0.00000000
Si       2.69120574      -2.71111212      -0.00397372       0.00000000
Si      -2.73913092       2.68625358       0.00369111       0.00000000
Si      -0.01238040       2.69692353       2.73246252       0.00000000
