10
Lattice="16.28999089631971 0.0 0.0 0.0 16.28999089631971 0.0 0.0 0.0 34.46413024517268" Properties=species:S:1:pos:R:3:initial_magmoms:R:1 pbc="T T T"
Si       2.23976097       0.71964333       0.46223317       0.00000000
Si      -0.80272952      -0.07718202       2.29989609       0.00000000
Si       0.98022631      -1.70693136      -1.48502574       0.00000000
Si      -1.75931090       1.31992983      -1.20838201       0.00000000
Si       2.09704428      -0.05960511      -2.87765309       0.00000000
Si      -1.44714563       2.15065467       2.57130127       0.00000000
Si       1.95786252       2.63621070       1.75039969       0.00000000
Si      -2.65060196      -1.49073048       2.18923170       0.00000000
Si       2.90120013       1.80418266      -1.56291472       0.00000000
Si      -2.95356338       2.20240800       0.80005077       0.00000000
