10
Lattice="16.28999089631971 0.0 0.0 0.0 16.28999089631971 0.0 0.0 0.0 34.46413024517268" Properties=species:S:1:pos:R:3:initial_magmoms:R:1 pbc="T T T"
Si       1.50641775      -0.05175333       1.77125050       0.00000000
Si      -0.93098979       2.16314910       0.03229291       0.00000000
Si      -1.92819843      -1.28203929       0.92780937       0.00000000
Si       1.19425248      -0.88247817      -2.00843278       0.00000000
Si       2.15083386      -2.27959002       1.49984532       0.00000000
Si       2.98449646       1.71647730       0.97082063       0.00000000
Si      -3.10050828       1.67034402       1.02113829       0.00000000
Si      -1.56449160      -3.37489704      -0.10449530       0.00000000
Si      -1.87092279       2.17440549      -2.38323040       0.00000000
Si       2.95356338      -2.20240800      -0.80005077       0.00000000
