10
Lattice="16.28999089631971 0.0 0.0 0.0 16.28999089631971 0.0 0.0 0.0 34.46413024517268" Properties=species:S:1:pos:R:3:initial_magmoms:R:1 pbc="T T T"
Si       1.77838486       0.78121953      -1.40114000       0.00000000
Si      -1.94059512       0.24382872      -1.42130153       0.00000000
Si       0.51631222      -2.29703661       0.62400789       0.00000000
Si      -0.16228098       1.34381097       2.16948375       0.00000000
Si       2.16625139      -2.71002069      -1.05966920       0.00000000
Si       1.12807503       0.06955830      -3.52109876       0.00000000
Si      -1.01480184       0.89919171      -3.47129807       0.00000000
Si       3.47982812      -0.78351642      -1.16178648       0.00000000
Si       1.83343365      -1.77041349       2.91456420       0.00000000
Si      -2.53346967       1.58873112       2.47331969       0.00000000
