10
Lattice="16.28999089631971 0.0 0.0 0.0 16.28999089631971 0.0 0.0 0.0 34.46413024517268" Properties=species:S:1:pos:R:3:initial_magmoms:R:1 pbc="T T T"
Si       0.28507500       1.10910465       2.05209885       0.00000000
Si       1.55206233      -1.77181443      -0.17742144       0.00000000
Si      -2.05617267      -1.20412422       0.16211936       0.00000000
Si       0.36241992       1.78263099      -1.62756946       0.00000000
Si       2.47785561      -1.11645144      -2.22741798       0.00000000
Si      -3.53528838       0.47236113      -0.48408344       0.00000000
Si       2.61483822       1.22929227      -2.19329847       0.00000000
Si      -1.89200205       1.91601351       2.49399818       0.00000000
Si       0.22959126      -3.73607892      -0.32186069       0.00000000
Si       1.19711952       3.25487232       1.59151996       0.00000000
