10
Lattice="16.28999089631971 0.0 0.0 0.0 16.28999089631971 0.0 0.0 0.0 34.46413024517268" Properties=species:S:1:pos:R:3:initial_magmoms:R:1 pbc="T T T"
Si       1.37616291       1.33737642       1.35454447       0.00000000
Si       1.35697329      -1.35858600      -1.36102373       0.00000000
Si      -1.35738054       1.35886293      -1.36074801       0.00000000
Si      -1.36907676      -1.35378045       1.37408564       0.00000000
Si       0.05791095       2.71831230       2.64950042       0.00000000
Si       2.71534144       2.71272483       0.00192999       0.00000000
Si      -2.71643895       2.71422351      -0.00196446       0.00000000
Si      -2.71391400      -2.71717200      -0.00051696       0.00000000
Si       2.71480384       0.00052128      -2.71780837       0.00000000
Si      -0.00014661      -2.71469592      -2.71825640       0.00000000
