10
Lattice="16.28999089631971 0.0 0.0 0.0 16.28999089631971 0.0 0.0 0.0 34.46413024517268" Properties=species:S:1:pos:R:3:initial_magmoms:R:1 pbc="T T T"
Si       1.36212093       1.35169291      -1.35157021       0.00000000
Si      -1.35858600       1.35223260       1.36050677       0.00000000
Si       1.35852084      -1.36218609       1.35998980       0.00000000
Si      -1.37425698      -1.38308616      -1.36562814       0.00000000
Si       2.54552427      -0.08153145      -2.77921659       0.00000000
Si       0.01177767       2.67560711      -2.74237441       0.00000000
Si      -2.71029762       2.71082772       0.00199892       0.00000000
Si       2.71538010       2.71189960      -0.00037911       0.00000000
Si       0.00091224       2.71080165       2.71739480       0.00000000
Si      -2.70857088      -2.71995759       0.00530748       0.00000000
