10
Lattice="16.28999089631971 0.0 0.0 0.0 16.28999089631971 0.0 0.0 0.0 34.46413024517268" Properties=species:S:1:pos:R:3:initial_magmoms:R:1 pbc="T T T"
Si      -1.34281728      -1.35068535       1.35809428       0.00000000
Si       1.35483930       1.33941267       1.37146637       0.00000000
Si       1.35571896      -1.35650088      -1.35564732       0.00000000
Si      -1.35711990       1.35589815      -1.35523375       0.00000000
Si      -0.06766866       2.62185921       2.73686704       0.00000000
Si       0.05844852      -2.71248048       2.65563504       0.00000000
Si      -2.71454931      -0.00029322      -2.71198392       0.00000000
Si      -2.71265967       2.71428065       0.00641033       0.00000000
Si       0.00030951       2.71486536      -2.71208732       0.00000000
Si       2.71512038       0.00048870      -2.71194946       0.00000000
