10
Lattice="16.28999089631971 0.0 0.0 0.0 16.28999089631971 0.0 0.0 0.0 34.46413024517268" Properties=species:S:1:pos:R:3:initial_magmoms:R:1 pbc="T T T"
Si      -0.89692740      -1.76995737       1.39915973       0.00000000
Si       1.75863582       1.02569985       1.36056333       0.00000000
Si      -0.05551632      -1.10527650      -2.36313780       0.00000000
Si      -1.83073536       2.00062377       0.12459725       0.00000000
Si      -2.16114543      -0.27585486       2.77415178       0.00000000
Si      -2.11928013      -2.30516532      -2.02835305       0.00000000
Si       0.57523248       2.45892421       2.78820970       0.00000000
Si       0.50367051       0.90355743      -3.63479599       0.00000000
Si       1.54105029       2.62264099      -2.40856155       0.00000000
Si       2.64236832       2.87542676       0.11757862       0.00000000
