10
Lattice="16.28999089631971 0.0 0.0 0.0 16.28999089631971 0.0 0.0 0.0 34.46413024517268" Properties=species:S:1:pos:R:3:initial_magmoms:R:1 pbc="T T T"
Si      -0.00558747       1.85626179       1.43815449       0.00000000
Si       0.54926622      -1.39911552       1.82077548       0.00000000
Si       1.95134652      -0.13592376      -1.34327469       0.00000000
Si      -2.19441775      -0.02132361      -0.99511785       0.00000000
Si       1.32307380      -2.30555628      -2.03538374       0.00000000
Si      -1.52017465      -0.87047244       2.98828301       0.00000000
Si      -1.42487327       0.30112065      -3.20034092       0.00000000
Si      -1.87264790       1.44358722       2.74179541       0.00000000
Si       2.76925113      -0.44815419       2.31861012       0.00000000
Si       1.55693304       1.32304122       3.13158494       0.00000000
