10
Lattice="16.28999089631971 0.0 0.0 0.0 16.28999089631971 0.0 0.0 0.0 34.46413024517268" Properties=species:S:1:pos:R:3:initial_magmoms:R:1 pbc="T T T"
Si       0.46413468       1.95062976      -1.14165942       0.00000000
Si      -1.86706043      -0.41267457       1.30364092       0.00000000
Si       0.00558747      -1.85626179      -1.43815449       0.00000000
Si       1.56252051      -0.53322057       1.69343045       0.00000000
Si       0.55485369      -3.25537731       0.38262099       0.00000000
Si      -1.51458718      -2.72673423       1.55012852       0.00000000
Si      -1.21675060       0.29898666       3.42359968       0.00000000
Si       2.77483860      -2.30441598       0.88045563       0.00000000
Si      -2.18883028      -1.87758540      -2.43327235       0.00000000
Si      -0.66624471       3.76662267      -0.15963794       0.00000000
