10
Lattice="16.28999089631971 0.0 0.0 0.0 16.28999089631971 0.0 0.0 0.0 34.46413024517268" Properties=species:S:1:pos:R:3:initial_magmoms:R:1 pbc="T T T"
Si       1.70144326      -1.56473595       0.23935352       0.00000000
Si      -0.65030983      -0.71166123      -2.11995876       0.00000000
Si       1.42483906       1.88221176       0.07540756       0.00000000
Si      -1.77838486      -0.78121953       1.40114000       0.00000000
Si       2.77927111      -0.83220723      -1.73016923       0.00000000
Si      -2.79318670       0.11797218      -2.07015807       0.00000000
Si       0.38786653      -3.49124022       0.34147079       0.00000000
Si      -0.29783659      -3.02572089      -1.87347117       0.00000000
Si       1.24151140       2.40215598       2.38840002       0.00000000
Si       1.21675060      -0.29898666      -3.42359968       0.00000000
