10
Lattice="16.28999089631971 0.0 0.0 0.0 16.28999089631971 0.0 0.0 0.0 34.46413024517268" Properties=species:S:1:pos:R:3:initial_magmoms:R:1 pbc="T T T"
Si      -1.33917853      -1.37534841       1.35261448       0.00000000
Si       1.35737100      -1.35410625      -1.36164408       0.00000000
Si      -1.36016005       1.36156707      -1.36371193       0.00000000
Si       1.37944232       1.36878354       1.39438502       0.00000000
Si      -2.65743049       0.00558747       2.64757043       0.00000000
Si       2.71322679      -2.71326240      -0.00089607       0.00000000
Si      -2.71534144      -2.71272483      -0.00192999       0.00000000
Si      -0.00053761      -2.71220355      -2.71973836       0.00000000
Si       2.71228197       2.71992501      -0.00151642       0.00000000
Si      -2.71587901       2.71806795      -0.00806461       0.00000000
