10
Lattice="16.28999089631971 0.0 0.0 0.0 16.28999089631971 0.0 0.0 0.0 34.46413024517268" Properties=species:S:1:pos:R:3:initial_magmoms:R:1 pbc="T T T"
Si       0.93939543      -1.99930428       0.67404984       0.00000000
Si      -1.52161795      -0.70988562      -1.59424263       0.00000000
Si       1.59508422       1.51581708      -0.79308901       0.00000000
Si      -1.02306087       1.03759155       1.88667094       0.00000000
Si       0.23592807      -0.22388976       3.46316453       0.00000000
Si       2.14711974      -1.20379842       2.54224799       0.00000000
Si      -3.53918888      -0.05890464      -0.56259278       0.00000000
Si       0.24487128       2.29716693      -2.74496612       0.00000000
Si      -0.66023370       0.13367574      -3.62187194       0.00000000
Si       2.61623916      -2.55285477      -0.88648685       0.00000000
