10
Lattice="16.28999089631971 0.0 0.0 0.0 16.28999089631971 0.0 0.0 0.0 34.46413024517268" Properties=species:S:1:pos:R:3:initial_magmoms:R:1 pbc="T T T"
Si      -0.39423429       1.84306689      -1.38059937       0.00000000
Si      -1.42483906      -1.88221176      -0.07540756       0.00000000
Si      -0.18332766       0.51994422       2.31299247       0.00000000
Si       2.14395948      -0.76088961      -0.83241260       0.00000000
Si       0.27660420      -3.44694771       0.16394596       0.00000000
Si       1.35443205      -2.71441899      -1.80557679       0.00000000
Si      -2.69528476       2.11936158      -0.97371562       0.00000000
Si       1.34263809       2.31658461       2.37561383       0.00000000
Si       1.51920540       3.34647099      -1.31494516       0.00000000
Si      -2.07514889      -2.59387299      -2.19536632       0.00000000
