10
Lattice="16.28999089631971 0.0 0.0 0.0 16.28999089631971 0.0 0.0 0.0 34.46413024517268" Properties=species:S:1:pos:R:3:initial_magmoms:R:1 pbc="T T T"
Si       1.35614087      -1.35835794       1.36095480       0.00000000
Si      -1.35861953       1.35912006       1.36119605       0.00000000
Si       1.35526121       1.34390871      -1.38108876       0.00000000
Si      -1.35514731      -1.37047770      -1.39543273       0.00000000
Si      -0.09963941       2.66436701      -2.72365693       0.00000000
Si       2.71083356      -2.71440270       0.00389445       0.00000000
Si      -2.71485135      -2.71495656      -0.00031018       0.00000000
Si       2.71578572       2.71467053       0.00017232       0.00000000
Si       2.71357028       0.00070047       2.71801515       0.00000000
Si      -0.00128202      -2.71476108       2.71825640       0.00000000
