10
Lattice="16.28999089631971 0.0 0.0 0.0 16.28999089631971 0.0 0.0 0.0 34.46413024517268" Properties=species:S:1:pos:R:3:initial_magmoms:R:1 pbc="T T T"
Si       1.18996821      -1.52101359       1.32114871       0.00000000
Si      -1.33954299      -1.37306781      -1.38111633       0.00000000
Si       1.37733579       1.34238252      -1.37897955       0.00000000
Si      -1.42327359       1.50577659       1.62322698       0.00000000
Si       2.34196443      -0.32378004       2.95450814       0.00000000
Si      -2.68406746       2.68481747      -0.02798489       0.00000000
Si      -2.67238264      -2.72420928       0.01478512       0.00000000
Si       2.72295495       2.70273484       0.01561226       0.00000000
Si      -2.69537761      -0.01962945      -2.74258809       0.00000000
Si       0.01868463       2.69621721      -2.74224345       0.00000000
