10
Lattice="16.28999089631971 0.0 0.0 0.0 16.28999089631971 0.0 0.0 0.0 34.46413024517268" Properties=species:S:1:pos:R:3:initial_magmoms:R:1 pbc="T T T"
Si      -1.35583462       1.35343836      -1.36147176       0.00000000
Si      -1.33283965      -1.35114147       1.39590145       0.00000000
Si       1.36096434      -1.35804843      -1.36191980       0.00000000
Si       1.33954299       1.37306781       1.38111633       0.00000000
Si       2.52951120      -0.14794578       2.70226503       0.00000000
Si      -2.71014191       2.71303434      -0.00382552       0.00000000
Si      -2.71304060      -0.00136836      -2.71849765       0.00000000
Si       0.00115659       2.71336053      -2.71825640       0.00000000
Si      -2.71228197      -2.71992501       0.00151642       0.00000000
Si       2.71687878       2.71545033       0.00213678       0.00000000
