10
Lattice="16.28999089631971 0.0 0.0 0.0 16.28999089631971 0.0 0.0 0.0 34.46413024517268" Properties=species:S:1:pos:R:3:initial_magmoms:R:1 pbc="T T T"
Si      -1.11088875      -1.77852591       1.14900028       0.00000000
Si      -1.42577445       1.25063217      -1.48154486       0.00000000
Si       1.31470758      -1.43806491      -1.45056159       0.00000000
Si       0.62887740       1.98301428       1.52279845       0.00000000
Si       2.56381664       2.79192096       0.15788027       0.00000000
Si      -2.84828241       2.53307871      -0.11614418       0.00000000
Si      -0.06259467       2.62611090      -2.85028856       0.00000000
Si       2.64754724      -0.08692344      -2.84646304       0.00000000
Si      -1.24454820       3.46425813       1.26331786       0.00000000
Si      -2.72216523      -2.80126098      -0.19737618       0.00000000
