10
Lattice="16.28999089631971 0.0 0.0 0.0 16.28999089631971 0.0 0.0 0.0 34.46413024517268" Properties=species:S:1:pos:R:3:initial_magmoms:R:1 pbc="T T T"
Si      -1.87342560       1.48124385      -0.25948058       0.00000000
Si       1.93493923       0.80890668      -1.36491818       0.00000000
Si      -0.62887740      -1.98301428      -1.52279845       0.00000000
Si       0.16478312      -0.27598518       2.61114182       0.00000000
Si       2.34837943      -1.15448859       2.50071869       0.00000000
Si       0.67414536       1.98794756      -3.01613004       0.00000000
Si      -0.75446550       3.22480817      -1.63832228       0.00000000
Si      -2.05465185      -0.73238211      -3.00434330       0.00000000
Si       2.75602039       2.63023946       0.04966284       0.00000000
Si      -1.49165316      -1.95499548       2.92038864       0.00000000
