10
Lattice="16.28999089631971 0.0 0.0 0.0 16.28999089631971 0.0 0.0 0.0 34.642051614445585" Properties=species:S:1:pos:R:3:initial_magmoms:R:1 pbc="T T T"
Si       0.72204610      -1.74120552      -1.34677979       0.00000000
Si      -1.58135079       1.30611591      -1.08616749       0.00000000
Si      -0.69190960      -0.93139704       2.02669972       0.00000000
Si       2.07507721       1.11610935       0.30800265       0.00000000
Si       1.63884731      -3.30273234       0.13191701       0.00000000
Si       0.15188959       0.55197036       3.66267152       0.00000000
Si       2.12088469      -0.75191382      -2.96508414       0.00000000
Si       0.51201914      -3.00563532       2.24096093       0.00000000
Si      -2.39158281       2.95764498       0.42045082       0.00000000
Si      -0.67264505       2.46285252      -2.89146974       0.00000000
