10
Lattice="16.28999089631971 0.0 0.0 0.0 16.28999089631971 0.0 0.0 0.0 34.642051614445585" Properties=species:S:1:pos:R:3:initial_magmoms:R:1 pbc="T T T"
Si       1.04093100      -0.97689501       1.89641089       0.00000000
Si      -1.63582388      -1.19091303      -1.45680301       0.00000000
Si      -0.76901669       2.40862378      -0.10888003       0.00000000
Si       2.28429783      -0.95565285      -0.81401938       0.00000000
Si       1.31215950       2.38552782      -1.84257711       0.00000000
Si      -0.23836180      -0.99378774      -3.32972658       0.00000000
Si       3.26756223       1.20967911      -0.97340755       0.00000000
Si      -2.17710053       2.44096106       1.93174580       0.00000000
Si      -0.57120885      -2.14733151       3.14747607       0.00000000
Si       2.25535050       0.68691672       3.13070584       0.00000000
