10
Lattice="16.28999089631971 0.0 0.0 0.0 16.28999089631971 0.0 0.0 0.0 34.642051614445585" Properties=species:S:1:pos:R:3:initial_magmoms:R:1 pbc="T T T"
Si       1.50886125      -1.20853510      -1.34501305       0.00000000
Si       1.58100966       0.41843258       1.72209199       0.00000000
Si      -0.70998336       1.77606073      -1.43383532       0.00000000
Si      -2.40264468      -0.29795668       0.41515058       0.00000000
Si      -1.86246828      -1.03646383      -2.53517604       0.00000000
Si       0.48861855       3.37446811      -0.14795629       0.00000000
Si      -2.39311503      -2.39632045      -0.63419239       0.00000000
Si      -2.89188225       1.87111288      -0.54803756       0.00000000
Si       0.22473684      -1.79261305      -3.15980722       0.00000000
Si       1.55124783       2.75298832       1.91989822       0.00000000
