10
Lattice="16.28999089631971 0.0 0.0 0.0 16.28999089631971 0.0 0.0 0.0 34.642051614445585" Properties=species:S:1:pos:R:3:initial_magmoms:R:1 pbc="T T T"
Si      -1.21911102       1.42860042       1.43391846       0.00000000
Si       1.78043184       1.06955253      -1.19592674       0.00000000
Si      -1.90755900      -0.74616345      -1.26420976       0.00000000
Si       1.46781045      -1.31442381       1.43051661       0.00000000
Si      -2.67361254      -2.55948480      -0.01741457       0.00000000
Si       3.44035026      -0.75476457      -1.28107560       0.00000000
Si      -2.58253515       0.04810437       2.79960243       0.00000000
Si      -3.55677489       0.97782354      -1.03199180       0.00000000
Si       2.78363520      -2.64117915      -0.00592726       0.00000000
Si      -2.56738545       2.87567370       0.04902892       0.00000000
