10
Lattice="16.28999089631971 0.0 0.0 0.0 16.28999089631971 0.0 0.0 0.0 34.642051614445585" Properties=species:S:1:pos:R:3:initial_magmoms:R:1 pbc="T T T"
Si      -1.35747828      -1.35646830       1.35751884       0.00000000
Si       1.35808101       1.35843939       1.35734562       0.00000000
Si       1.36120869      -1.35632169      -1.35925094       0.00000000
Si      -1.35974259       1.35839052      -1.35921630       0.00000000
Si      -2.71572219      -0.00232947      -2.68488175       0.00000000
Si       2.69060301      -0.00413766      -2.72830212       0.00000000
Si       0.00107514      -2.71404432       2.71434483       0.00000000
Si      -2.71391400       0.00079821       2.71451804       0.00000000
Si       2.71463076      -2.71388142       0.00065820       0.00000000
Si      -2.71560816      -2.71322982       0.00058892       0.00000000
