10
Lattice="16.28999089631971 0.0 0.0 0.0 16.28999089631971 0.0 0.0 0.0 34.642051614445585" Properties=species:S:1:pos:R:3:initial_magmoms:R:1 pbc="T T T"
Si      -1.12511772      -1.25434629       1.66815429       0.00000000
Si       1.66128678       1.26328950       1.17259946       0.00000000
Si      -1.85609889       1.14328107      -1.10452779       0.00000000
Si       1.37290491      -1.21738428      -1.62162998       0.00000000
Si       2.22858603       0.72097911      -2.68084595       0.00000000
Si       3.11347512       1.79124840      -0.71476985       0.00000000
Si      -2.84604219       0.19619676       2.32926357       0.00000000
Si      -1.87841619       0.15881121      -3.27904523       0.00000000
Si       2.21271957      -0.16013070       3.08986488       0.00000000
Si      -2.07946737      -3.16076499       0.59612076       0.00000000
