10
Lattice="16.28999089631971 0.0 0.0 0.0 16.28999089631971 0.0 0.0 0.0 34.642051614445585" Properties=species:S:1:pos:R:3:initial_magmoms:R:1 pbc="T T T"
Si      -1.72092447       1.45054305       0.66110928       0.00000000
Si       1.46295603      -0.32884623       1.82220758       0.00000000
Si       1.12511772       1.25434629      -1.66815429       0.00000000
Si      -0.95434965      -1.90641870      -1.07203353       0.00000000
Si      -2.66730831       1.92313224      -1.47852359       0.00000000
Si       0.88896159      -3.37132953      -1.09077489       0.00000000
Si      -3.09567341       0.16136874       2.03674592       0.00000000
Si      -0.73098117       2.39762736      -2.77268208       0.00000000
Si       2.78640450       2.51763579      -0.49555483       0.00000000
Si       3.33783729       1.09421559       1.42171059       0.00000000
