10
Lattice="16.28999089631971 0.0 0.0 0.0 16.28999089631971 0.0 0.0 0.0 34.642051614445585" Properties=species:S:1:pos:R:3:initial_magmoms:R:1 pbc="T T T"
Si       0.97277364      -0.86841990      -1.94248485       0.00000000
Si      -2.19704859      -0.93066399       0.10527725       0.00000000
Si       1.30798926      -0.73585188       1.88369725       0.00000000
Si       0.83237013       2.25937413       0.16960758       0.00000000
Si       3.07053468       1.77764625      -0.32023130       0.00000000
Si       0.36457020       2.66036877       2.43464475       0.00000000
Si       1.42135137      -3.10849038      -1.25321156       0.00000000
Si       2.84765490       0.55464192      -2.34298183       0.00000000
Si       3.51051129       0.23045463       1.40182604       0.00000000
Si      -0.49018239      -0.53957367      -3.76469242       0.00000000
