10
Lattice="16.28999089631971 0.0 0.0 0.0 16.28999089631971 0.0 0.0 0.0 34.642051614445585" Properties=species:S:1:pos:R:3:initial_magmoms:R:1 pbc="T T T"
Si       0.52307190      -1.38981393      -1.84614525       0.00000000
Si      -1.85710887      -1.24699950       0.88936589       0.00000000
Si      -0.42034716       2.00640672      -1.29519775       0.00000000
Si       2.05063407       1.21259502       0.95958537       0.00000000
Si       1.20055671       3.27515337      -0.04863747       0.00000000
Si      -1.03140135      -1.15356006       3.15055294       0.00000000
Si       2.72559393      -0.42350742      -2.32801645       0.00000000
Si       0.30030615      -3.67412805      -1.15229921       0.00000000
Si      -0.78491736      -0.65396205      -3.72984250       0.00000000
Si       3.86591022       0.37406727      -0.41116674       0.00000000
