10
Lattice="16.28999089631971 0.0 0.0 0.0 16.28999089631971 0.0 0.0 0.0 34.642051614445585" Properties=species:S:1:pos:R:3:initial_magmoms:R:1 pbc="T T T"
Si      -1.66128678      -1.26328950      -1.17259946       0.00000000
Si      -0.63949653       2.07563922       1.06306123       0.00000000
Si       1.45218834       0.52795890      -1.88736931       0.00000000
Si       0.55143279      -1.42342020       1.91726542       0.00000000
Si      -0.28838187      -2.48067378      -2.79422944       0.00000000
Si       1.37280717       2.91367827       1.95433243       0.00000000
Si      -2.78640450      -2.51763579       0.49555483       0.00000000
Si      -1.32344847      -2.84648202       2.31776240       0.00000000
Si       0.56729925      -0.54231039      -3.85344541       0.00000000
Si       1.76601519       2.86117560      -2.15006014       0.00000000
