10
Lattice="16.28999089631971 0.0 0.0 0.0 16.28999089631971 0.0 0.0 0.0 34.642051614445585" Properties=species:S:1:pos:R:3:initial_magmoms:R:1 pbc="T T T"
Si      -2.05646589      -0.93711483      -0.59019696       0.00000000
Si       0.67251636      -1.66961097       1.49494393       0.00000000
Si       1.49687181       0.12471624      -1.87184966       0.00000000
Si      -0.32334021       2.10722553       1.20100596       0.00000000
Si      -3.18329406      -0.64001781       1.51884696       0.00000000
Si      -2.97326709       0.62441199      -2.06889376       0.00000000
Si       2.91068091      -2.15133885       1.00510505       0.00000000
Si       3.50917551       0.96275529      -0.98057846       0.00000000
Si      -1.62023598       3.48172686      -0.41411132       0.00000000
Si       1.77932412       2.80202661       2.14960979       0.00000000
