10
Lattice="16.28999089631971 0.0 0.0 0.0 16.28999089631971 0.0 0.0 0.0 34.642051614445585" Properties=species:S:1:pos:R:3:initial_magmoms:R:1 pbc="T T T"
Si       1.17542124       1.16574498      -1.65862772       0.00000000
Si      -1.02812706       1.66967613       1.33465507       0.00000000
Si      -1.62090387      -1.26874665      -1.24656028       0.00000000
Si       0.85007736      -2.06255835       1.00822283       0.00000000
Si      -1.20055671      -3.27515337       0.04863747       0.00000000
Si       1.49043726       3.44735496       0.14632811       0.00000000
Si       2.66535351      -2.90108610      -0.36252927       0.00000000
Si      -0.04629618       2.80189629      -2.85693159       0.00000000
Si      -1.15310394      -1.66974129      -3.51159745       0.00000000
Si      -3.77365995      -0.36644355      -1.45562518       0.00000000
