10
Lattice="16.28999089631971 0.0 0.0 0.0 16.28999089631971 0.0 0.0 0.0 34.642051614445585" Properties=species:S:1:pos:R:3:initial_magmoms:R:1 pbc="T T T"
Si      -1.35687555      -1.35751086       1.35703385       0.00000000
Si      -1.35653346       1.35835794      -1.35686064       0.00000000
Si       1.35773892       1.35707103       1.35720706       0.00000000
Si       1.35607734      -1.35690813      -1.36146803       0.00000000
Si      -2.71274112       2.71331127      -0.00010393       0.00000000
Si      -2.71422351      -0.00102627       2.71420626       0.00000000
Si      -2.71360449      -2.71568961       0.00038106       0.00000000
Si       0.00068418       2.71475961       2.71458732       0.00000000
Si       2.71639008       2.71340194      -0.00010393       0.00000000
Si       0.00047241      -2.71518462       2.71472589       0.00000000
