10
Lattice="16.28999089631971 0.0 0.0 0.0 16.28999089631971 0.0 0.0 0.0 34.642051614445585" Properties=species:S:1:pos:R:3:initial_magmoms:R:1 pbc="T T T"
Si       1.36378251      -1.36876725       1.25958570       0.00000000
Si      -1.32690195      -1.36220238      -1.35831560       0.00000000
Si       1.38243456       1.35925389      -1.35900844       0.00000000
Si      -1.61060859       1.07917992       1.42739189       0.00000000
Si       2.45180790       0.27557793       2.46329374       0.00000000
Si      -0.42640704       2.91636027       2.33823586       0.00000000
Si      -2.69223853       2.69412069       0.00013857       0.00000000
Si      -2.68808132      -0.00304623      -2.71621550       0.00000000
Si      -2.69625727      -2.72533329       0.01260971       0.00000000
Si       0.02783961       2.71173507      -2.71836331       0.00000000
