10
Lattice="16.28999089631971 0.0 0.0 0.0 16.28999089631971 0.0 0.0 0.0 34.642051614445585" Properties=species:S:1:pos:R:3:initial_magmoms:R:1 pbc="T T T"
Si      -1.36378251       1.36876725      -1.25958570       0.00000000
Si       1.08802539       1.64434518       1.20370804       0.00000000
Si      -0.97282251      -1.58413734       1.38464358       0.00000000
Si       1.40631570      -1.36070370      -1.24701063       0.00000000
Si       0.72954765      -3.25848870       1.68578710       0.00000000
Si      -2.69068446       0.00656487      -2.61790130       0.00000000
Si       0.02090007      -2.71065600      -2.61613456       0.00000000
Si       0.01865205       2.72802114      -2.61859414       0.00000000
Si       2.73390183       0.00478926      -2.62046482       0.00000000
Si      -2.97439110       2.44794717       0.16780619       0.00000000
