10
Lattice="16.28999089631971 0.0 0.0 0.0 16.28999089631971 0.0 0.0 0.0 34.642051614445585" Properties=species:S:1:pos:R:3:initial_magmoms:R:1 pbc="T T T"
Si       1.21270905      -0.17208756       2.03099534       0.00000000
Si      -2.12630112      -0.95444739       0.49385736       0.00000000
Si       0.32421987       2.33676207      -0.52118996       0.00000000
Si       1.57125195      -0.31851837      -1.84143392       0.00000000
Si      -1.38605094       1.96888175      -2.04620321       0.00000000
Si       0.03261258       0.56220048      -3.37091600       0.00000000
Si       2.49865794       1.89226173      -1.38017475       0.00000000
Si      -1.40382333      -2.99846772       1.43033647       0.00000000
Si       0.48698955      -2.34678627       2.78532643       0.00000000
Si       0.25111035       1.23056289       3.63197865       0.00000000
