10
Lattice="16.28999089631971 0.0 0.0 0.0 16.28999089631971 0.0 0.0 0.0 34.642051614445585" Properties=species:S:1:pos:R:3:initial_magmoms:R:1 pbc="T T T"
Si      -1.28412441      -0.58407795      -1.81479417       0.00000000
Si       0.80075124      -1.73776833       1.32779594       0.00000000
Si      -1.50886125       1.20853510       1.34501305       0.00000000
Si       1.84252932       1.13178033      -1.01172168       0.00000000
Si       0.07214841       1.62696768       3.06710504       0.00000000
Si      -3.37132953       0.17207127      -1.19016299       0.00000000
Si       2.88448659      -0.97230123       1.93940170       0.00000000
Si       2.35331856       1.32112081       2.46585725       0.00000000
Si       3.24327384      -0.69484995      -1.61251912       0.00000000
Si      -2.21884461       2.98459583      -0.08882227       0.00000000
