10
Lattice="16.28999089631971 0.0 0.0 0.0 16.28999089631971 0.0 0.0 0.0 34.642051614445585" Properties=species:S:1:pos:R:3:initial_magmoms:R:1 pbc="T T T"
Si      -1.35672894      -1.35745436      -1.35772669       0.00000000
Si      -1.35799956       1.35998694       1.35509389       0.00000000
Si       1.35853713       1.35716877      -1.35786526       0.00000000
Si       1.35808101      -1.35823481       1.35821168       0.00000000
Si      -2.73571002       0.01917659       2.67959883       0.00000000
Si       0.01490535       2.70477531       2.71444876       0.00000000
Si      -2.71228500       2.71565703      -0.00114319       0.00000000
Si      -2.71347417      -0.00080636      -2.71486446       0.00000000
Si      -2.71340901      -2.71546874      -0.00090069       0.00000000
Si       0.00065160       2.71427238      -2.71521088       0.00000000
