10
Lattice="16.28999089631971 0.0 0.0 0.0 16.28999089631971 0.0 0.0 0.0 34.642051614445585" Properties=species:S:1:pos:R:3:initial_magmoms:R:1 pbc="T T T"
Si       1.66868244      -0.35689665       1.54545207       0.00000000
Si       0.07566705       1.57122751      -1.73622596       0.00000000
Si      -2.17443807       0.44450034       0.85898479       0.00000000
Si      -0.92740599      -2.21078010      -0.46125918       0.00000000
Si      -0.82968228      -0.15055560      -3.20259018       0.00000000
Si      -2.49865794      -1.89226173       1.38017475       0.00000000
Si      -2.46604536      -1.33006125      -1.99074125       0.00000000
Si       3.55563459      -1.18472187       0.49143242       0.00000000
Si       2.01034890       1.53755608       2.84082303       0.00000000
Si      -2.06539281       2.03357029       2.61655026       0.00000000
