10
Lattice="16.28999089631971 0.0 0.0 0.0 16.28999089631971 0.0 0.0 0.0 34.642051614445585" Properties=species:S:1:pos:R:3:initial_magmoms:R:1 pbc="T T T"
Si       2.00267631       0.27277605      -1.16456250       0.00000000
Si      -0.14960736      -2.15399479       0.94701029       0.00000000
Si      -1.08763443      -0.11497368      -2.15615714       0.00000000
Si       0.35815194       1.26080527       2.20011793       0.00000000
Si       1.29894831       2.55356176      -1.31390447       0.00000000
Si      -1.05311592       3.22006711      -0.96952764       0.00000000
Si      -0.55646640      -2.40839572      -2.68261269       0.00000000
Si      -1.00624959       3.20723059       1.45721872       0.00000000
Si       0.37146087      -3.56720116      -0.85870766       0.00000000
Si      -3.36880458       0.19087319      -1.55490936       0.00000000
