10
Lattice="16.28999089631971 0.0 0.0 0.0 16.28999089631971 0.0 0.0 0.0 34.642051614445585" Properties=species:S:1:pos:R:3:initial_magmoms:R:1 pbc="T T T"
Si       1.35617508       1.35708732      -1.35779597       0.00000000
Si      -1.35874890      -1.35837423      -1.35789990       0.00000000
Si       1.35563751      -1.36150191       1.35831560       0.00000000
Si      -1.36251189       1.35902583       1.36285371       0.00000000
Si       2.71389771      -2.71259451      -0.00072748       0.00000000
Si       2.71283886       0.00022806      -2.71493374       0.00000000
Si      -0.00122175       2.71415835      -2.71482982       0.00000000
Si      -2.71505430      -2.71428867      -0.00107390       0.00000000
Si       2.71422351       2.71533123      -0.00086605       0.00000000
Si      -0.00211770      -2.71567332      -2.71514160       0.00000000
