10
Lattice="16.28999089631971 0.0 0.0 0.0 16.28999089631971 0.0 0.0 0.0 34.642051614445585" Properties=species:S:1:pos:R:3:initial_magmoms:R:1 pbc="T T T"
Si       0.50955120       0.55669446      -2.30833976       0.00000000
Si       0.27632727       2.14210242       1.13515138       0.00000000
Si      -2.39215392      -0.38626848      -0.42751780       0.00000000
Si       1.77256377      -1.52866989       1.26401989       0.00000000
Si       2.38348764      -1.02425004      -2.43575329       0.00000000
Si       2.26556433       1.75405833       2.45217364       0.00000000
Si      -2.35858023      -1.76938722      -2.36452920       0.00000000
Si      -1.81887624       2.48199327       2.35462156       0.00000000
Si       3.59564283      -1.51917282      -0.35535836       0.00000000
Si      -1.39123116       0.02759526      -3.70323739       0.00000000
