10
Lattice="16.28999089631971 0.0 0.0 0.0 16.28999089631971 0.0 0.0 0.0 34.642051614445585" Properties=species:S:1:pos:R:3:initial_magmoms:R:1 pbc="T T T"
Si       1.72217880      -0.26575506      -1.48049819       0.00000000
Si      -1.62877194       1.64465469      -0.43112057       0.00000000
Si      -0.99017136      -2.10769794      -0.36197500       0.00000000
Si       0.79483797       0.20240325       2.25561453       0.00000000
Si       2.98611990       1.53179757      -0.69869593       0.00000000
Si      -3.50365320       0.22159287      -0.03062359       0.00000000
Si       2.39479290      -2.44747476      -0.90959686       0.00000000
Si      -1.40589216       2.86765902       1.59162995       0.00000000
Si       0.35300430      -1.94531922       3.11407969       0.00000000
Si      -0.96591555       1.32046740       3.31368730       0.00000000
