10
Lattice="16.28999089631971 0.0 0.0 0.0 16.28999089631971 0.0 0.0 0.0 34.642051614445585" Properties=species:S:1:pos:R:3:initial_magmoms:R:1 pbc="T T T"
Si      -0.42668397       1.96898859       1.18344243       0.00000000
Si      -2.01230370      -0.83803905      -0.89127120       0.00000000
Si       1.21161762       0.68890410      -1.96316616       0.00000000
Si       1.09827180      -1.52272404       1.53145667       0.00000000
Si       3.01583286      -0.82652202      -1.56218419       0.00000000
Si       1.65705138       2.73445569       1.79504819       0.00000000
Si      -0.59849460      -3.11409414       1.98568351       0.00000000
Si      -1.37280717      -2.91367827      -1.95433243       0.00000000
Si      -3.50917551      -0.96275529       0.98057846       0.00000000
Si      -2.73957075       0.84225816      -2.45546463       0.00000000
