10
Lattice="16.28999089631971 0.0 0.0 0.0 16.28999089631971 0.0 0.0 0.0 34.642051614445585" Properties=species:S:1:pos:R:3:initial_magmoms:R:1 pbc="T T T"
Si      -1.35097857      -1.36244673       1.39058469       0.00000000
Si       1.36876725       1.35166275       1.39197037       0.00000000
Si       1.39642767      -1.44529767      -1.34228325       0.00000000
Si      -1.38684915       1.42302924      -1.55217610       0.00000000
Si       2.69775432       2.70309744       0.01504852       0.00000000
Si      -2.70918990      -2.70702333       0.00434065       0.00000000
Si      -2.71191033       2.70602964       0.00736837       0.00000000
Si      -2.70705591      -0.00553860       2.75205272       0.00000000
Si       0.00933417       2.70786334       2.75194880       0.00000000
Si       2.73670371      -2.73644307       0.04216633       0.00000000
