10
Lattice="16.28999089631971 0.0 0.0 0.0 16.28999089631971 0.0 0.0 0.0 34.642051614445585" Properties=species:S:1:pos:R:3:initial_magmoms:R:1 pbc="T T T"
Si      -1.66868244       0.35689665      -1.54545207       0.00000000
Si       1.88695215      -0.82782522      -1.05401965       0.00000000
Si       0.34166646       1.89445274       1.29537096       0.00000000
Si      -0.54178911      -1.65563415       1.64962078       0.00000000
Si       1.82775429       1.01954290       3.00589250       0.00000000
Si       0.99308727      -1.14668568       3.43022323       0.00000000
Si      -2.59608843      -1.85388345      -2.00671125       0.00000000
Si      -1.70334756       2.47532156       2.32185016       0.00000000
Si      -2.95463133      -1.70745264       1.86571802       0.00000000
Si       3.93976908       0.03047859      -0.28101648       0.00000000
