10
Lattice="16.28999089631971 0.0 0.0 0.0 16.28999089631971 0.0 0.0 0.0 34.642051614445585" Properties=species:S:1:pos:R:3:initial_magmoms:R:1 pbc="T T T"
Si      -0.94941378      -0.64244502       2.05642262       0.00000000
Si       0.83466702       2.16622858      -0.42433073       0.00000000
Si       1.93406283      -1.37849238      -0.13531193       0.00000000
Si      -1.53487638      -0.50894847      -1.78060245       0.00000000
Si      -1.03648383      -2.82201444      -1.95204606       0.00000000
Si       2.96352567       1.76264057      -1.43889306       0.00000000
Si      -2.35015830       1.18418526       2.65722005       0.00000000
Si       1.36132272      -3.02552541      -1.72877791       0.00000000
Si      -0.99308727       1.14668568      -3.43022323       0.00000000
Si      -0.65142081       3.04113842      -2.13485227       0.00000000
