10
Lattice="16.28999089631971 0.0 0.0 0.0 16.28999089631971 0.0 0.0 0.0 34.642051614445585" Properties=species:S:1:pos:R:3:initial_magmoms:R:1 pbc="T T T"
Si      -0.52106823       1.41320637       1.80571795       0.00000000
Si      -0.92792727       1.15880544      -1.82390504       0.00000000
Si      -0.96539427      -2.15006823       0.03353352       0.00000000
Si       2.32016841       0.28383696      -0.38334916       0.00000000
Si      -3.09311262      -1.37253024       0.70953890       0.00000000
Si       1.48797747       0.30771810       3.14948388       0.00000000
Si       2.12402052       2.12985234      -1.93472502       0.00000000
Si       0.28041606      -1.79031987       3.17782110       0.00000000
Si       0.74808567       0.99608463      -3.46936877       0.00000000
Si      -0.37146087       3.56720116       0.85870766       0.00000000
