10
Lattice="16.28999089631971 0.0 0.0 0.0 16.28999089631971 0.0 0.0 0.0 34.642051614445585" Properties=species:S:1:pos:R:3:initial_magmoms:R:1 pbc="T T T"
Si       0.52106823      -1.41320637      -1.80571795       0.00000000
Si       0.14960736       2.15399479      -0.94701029       0.00000000
Si      -2.25702837      -0.50412663       0.70877677       0.00000000
Si       2.00904570      -1.10548827       1.34376593       0.00000000
Si       0.80148429      -3.20352624       1.37210315       0.00000000
Si      -0.40685904      -0.25440093      -3.62962299       0.00000000
Si       0.50775930       3.41480007       1.25310763       0.00000000
Si       3.67859151      -0.26117757      -0.16060064       0.00000000
Si       2.84123664      -1.12936941      -2.18906711       0.00000000
Si      -0.93802707       2.03902111      -3.10316743       0.00000000
