10
Lattice="16.28999089631971 0.0 0.0 0.0 16.28999089631971 0.0 0.0 0.0 34.642051614445585" Properties=species:S:1:pos:R:3:initial_magmoms:R:1 pbc="T T T"
Si       0.89307156       1.72991655       1.29894221       0.00000000
Si      -1.78981066      -0.92294253       1.26854726       0.00000000
Si      -0.49858381       1.25511192      -2.01562642       0.00000000
Si       1.79184624      -1.71506007      -0.27119030       0.00000000
Si       2.25115908       0.43106598       2.62315270       0.00000000
Si      -0.45975862      -2.27664153       2.61214344       0.00000000
Si       1.50877491       2.60734482      -2.04140012       0.00000000
Si       2.27779323      -1.17493254      -2.73486510       0.00000000
Si       0.19730122      -0.18257832      -3.74482004       0.00000000
Si       3.51606129      -0.81580320       1.13180115       0.00000000
