10
Lattice="16.28999089631971 0.0 0.0 0.0 16.28999089631971 0.0 0.0 0.0 34.642051614445585" Properties=species:S:1:pos:R:3:initial_magmoms:R:1 pbc="T T T"
Si       0.48645198       1.58828311       1.58414726       0.00000000
Si      -1.95812316       0.50569207      -1.18652557       0.00000000
Si      -0.43181532      -2.18225634       0.76444658       0.00000000
Si       1.60129203       0.23810275      -1.75576408       0.00000000
Si      -1.46531808      -1.20443280      -2.81539575       0.00000000
Si       0.55674333       3.40996123       0.04399543       0.00000000
Si      -1.26917019      -3.05044818      -1.26401989       0.00000000
Si       1.75663771       2.59814908      -1.83637618       0.00000000
Si       2.53241964       0.44730871       2.64235861       0.00000000
Si       1.66561245      -3.15222810       1.29443562       0.00000000
