10
Lattice="16.28999089631971 0.0 0.0 0.0 16.28999089631971 0.0 0.0 0.0 34.642051614445585" Properties=species:S:1:pos:R:3:initial_magmoms:R:1 pbc="T T T"
Si      -1.35666378       1.35685926       1.35713777       0.00000000
Si       1.35628911       1.35801585      -1.35748419       0.00000000
Si      -1.35698958      -1.35791811      -1.35783061       0.00000000
Si       1.35826020      -1.35821133       1.35706849       0.00000000
Si       0.00193851       2.71360449      -2.71240487       0.00000000
Si       0.00105885      -2.71282257       2.71420626       0.00000000
Si      -2.71283886      -0.00022806       2.71493374       0.00000000
Si      -2.71406061       2.71393029       0.00010393       0.00000000
Si       0.00138465       2.71510317       2.71406769       0.00000000
Si       2.71516833       2.71454931       0.00000000       0.00000000
