10
Lattice="16.28999089631971 0.0 0.0 0.0 16.28999089631971 0.0 0.0 0.0 34.642051614445585" Properties=species:S:1:pos:R:3:initial_magmoms:R:1 pbc="T T T"
Si      -1.73982739      -0.99158859       1.18171829       0.00000000
Si       1.64921589      -1.72398699      -0.23221796       0.00000000
Si       0.98938944       1.89785016       1.08102072       0.00000000
Si      -1.12412403      -0.11416032      -2.15862404       0.00000000
Si       0.82350837      -1.81742643      -2.49340502       0.00000000
Si      -0.38173986      -2.29043916       2.50592878       0.00000000
Si       2.33766387       0.45077688       2.46591026       0.00000000
Si      -1.10200221       2.10872421      -2.90128076       0.00000000
Si       0.88316235      -3.53730834       1.01457723       0.00000000
Si      -2.63289894      -2.72150514      -0.11722392       0.00000000
