10
Lattice="16.28999089631971 0.0 0.0 0.0 16.28999089631971 0.0 0.0 0.0 34.642051614445585" Properties=species:S:1:pos:R:3:initial_magmoms:R:1 pbc="T T T"
Si       1.35649853       1.35806472      -1.35679135       0.00000000
Si      -1.35795069      -1.35671265      -1.35710313       0.00000000
Si       1.35532377      -1.35733167       1.36150267       0.00000000
Si      -1.35599589       1.35646830       1.36191838       0.00000000
Si      -2.71425609      -2.71379997      -0.00003464       0.00000000
Si      -2.71453302       0.00001629      -2.71385984       0.00000000
Si      -0.00047241      -2.71435383      -2.71410233       0.00000000
Si       2.71471125       0.00060273      -2.71444876       0.00000000
Si       2.71510384      -2.71412577       0.00055427       0.00000000
Si      -0.00009774       2.71497285      -2.71431019       0.00000000
