10
Lattice="16.28999089631971 0.0 0.0 0.0 16.28999089631971 0.0 0.0 0.0 34.642051614445585" Properties=species:S:1:pos:R:3:initial_magmoms:R:1 pbc="T T T"
Si      -1.31437494      -1.95388776      -0.15332581       0.00000000
Si      -0.77763573       1.96252146       1.09687189       0.00000000
Si       1.91694760      -0.30933081       1.40813090       0.00000000
Si      -0.40708710       1.53342657      -1.88400903       0.00000000
Si      -1.28001933      -2.25028431       2.25887088       0.00000000
Si      -2.99511198      -1.16743914      -1.64466696       0.00000000
Si      -2.51151075       2.57038281      -0.42367253       0.00000000
Si      -1.82241117       0.26037936      -3.16178182       0.00000000
Si       3.80526974       0.17593200       0.07139731       0.00000000
Si       3.19395491      -1.41452586      -1.68377786       0.00000000
