10
Lattice="16.28999089631971 0.0 0.0 0.0 16.28999089631971 0.0 0.0 0.0 34.642051614445585" Properties=species:S:1:pos:R:3:initial_magmoms:R:1 pbc="T T T"
Si       1.99003527       1.18745955      -0.43936539       0.00000000
Si       1.12793589      -0.96708843       1.83211521       0.00000000
Si      -0.57274011      -1.64703303      -1.59346598       0.00000000
Si      -1.93406283       1.37849238       0.13531193       0.00000000
Si       2.15361945      -2.67903711       0.39637458       0.00000000
Si       1.02946284       3.14113295      -1.30358113       0.00000000
Si      -2.88347661       0.73604736       2.19173455       0.00000000
Si      -1.09939581       3.54472096      -0.28901880       0.00000000
Si       0.36038367      -3.64781970      -0.81679075       0.00000000
Si      -2.97054666      -1.44352206      -1.81673413       0.00000000
