10
Lattice="16.28999089631971 0.0 0.0 0.0 16.28999089631971 0.0 0.0 0.0 34.642051614445585" Properties=species:S:1:pos:R:3:initial_magmoms:R:1 pbc="T T T"
Si      -1.33701498      -1.34100909       1.37899692       0.00000000
Si      -1.35257193       1.35887922      -1.35696456       0.00000000
Si       1.36171415      -1.35694071      -1.35530174       0.00000000
Si       1.34638200       1.37000529       1.37542879       0.00000000
Si       0.29396655      -2.48152086       2.70596145       0.00000000
Si      -2.56446648       0.17273916       2.78394075       0.00000000
Si      -2.71024569       0.00047241      -2.71396377       0.00000000
Si      -2.71022940       2.71423980       0.00183603       0.00000000
Si      -2.71130454      -2.71531494       0.00786375       0.00000000
Si       0.00394236      -2.71435383      -2.71413698       0.00000000
