10
Lattice="16.28999089631971 0.0 0.0 0.0 16.28999089631971 0.0 0.0 0.0 34.642051614445585" Properties=species:S:1:pos:R:3:initial_magmoms:R:1 pbc="T T T"
Si       1.07911869      -0.52473348       2.10124946       0.00000000
Si      -1.44831132       1.92270870       0.37981567       0.00000000
Si      -1.52298468      -1.87721073       0.38982722       0.00000000
Si       1.48955338       0.03101616      -2.01478285       0.00000000
Si      -0.47089503       0.55451160       3.51637806       0.00000000
Si      -1.15243605      -2.30630562      -2.59105370       0.00000000
Si      -3.25685970      -1.26934938      -1.13071720       0.00000000
Si      -3.50112825       1.06440489      -0.39318751       0.00000000
Si       3.32280881      -1.24714611      -1.05277254       0.00000000
Si      -1.43146746       2.50818500       2.65216231       0.00000000
