10
Lattice="16.28999089631971 0.0 0.0 0.0 16.28999089631971 0.0 0.0 0.0 34.642051614445585" Properties=species:S:1:pos:R:3:initial_magmoms:R:1 pbc="T T T"
Si       0.77763573      -1.96252146      -1.09687189       0.00000000
Si      -1.73387502       0.60786135      -1.52054442       0.00000000
Si       1.52298468       1.87721073      -0.38982722       0.00000000
Si      -1.51068573      -0.40277025       1.97245024       0.00000000
Si       0.37054863      -0.42909489      -2.98088092       0.00000000
Si       2.60210337       1.35247725       1.71142223       0.00000000
Si       2.69458333      -2.27185227       0.31125901       0.00000000
Si      -1.97814357       2.94161562      -0.78301473       0.00000000
Si      -0.57756195      -2.40355692       2.74912547       0.00000000
Si       0.07467336       3.79991943      -0.01001156       0.00000000
