10
Lattice="16.28999089631971 0.0 0.0 0.0 16.28999089631971 0.0 0.0 0.0 34.642051614445585" Properties=species:S:1:pos:R:3:initial_magmoms:R:1 pbc="T T T"
Si       1.58135079      -1.30611591       1.08616749       0.00000000
Si       0.90870574       1.15673661      -1.80530224       0.00000000
Si      -0.81023202       1.65152907       1.50661831       0.00000000
Si      -1.47690027      -1.40020695      -1.28878897       0.00000000
Si      -1.14399783       3.46209808      -0.01122403       0.00000000
Si      -2.99856546      -2.09411208       0.31614354       0.00000000
Si      -0.61480089       0.75434103      -3.56026956       0.00000000
Si       3.00914486       0.20937537      -2.29822427       0.00000000
Si       2.30339690      -3.04732143      -0.26061230       0.00000000
Si       0.64504557       3.48413356      -1.52719570       0.00000000
