10
Lattice="16.28999089631971 0.0 0.0 0.0 16.28999089631971 0.0 0.0 0.0 34.642051614445585" Properties=species:S:1:pos:R:3:initial_magmoms:R:1 pbc="T T T"
Si      -1.03826921      -1.91620899      -0.87259913       0.00000000
Si       1.07158878      -0.46802799       2.10675755       0.00000000
Si       1.36234899       0.46133280      -1.94920541       0.00000000
Si      -1.77168248       1.62395010       0.50334929       0.00000000
Si       1.27263996       2.85154821      -1.76840844       0.00000000
Si      -2.95559963      -2.27173824       0.35826830       0.00000000
Si      -1.90366895      -1.21310001      -3.00461074       0.00000000
Si      -0.56246112      -1.66667877       3.37181669       0.00000000
Si      -0.64136988       3.36152295       1.70026749       0.00000000
Si       0.71620614      -3.59416858      -1.09229914       0.00000000
