10
Lattice="16.28999089631971 0.0 0.0 0.0 16.28999089631971 0.0 0.0 0.0 34.642051614445585" Properties=species:S:1:pos:R:3:initial_magmoms:R:1 pbc="T T T"
Si      -1.00948967      -1.68233346       1.29270352       0.00000000
Si       1.12475934      -0.93330297      -1.85258867       0.00000000
Si      -1.29193546       1.75879872      -0.94926203       0.00000000
Si       0.30198402       1.10758968       2.99612343       0.00000000
Si      -1.70537471      -0.24464322       3.02189714       0.00000000
Si       2.24961642      -0.59567643       2.66134246       0.00000000
Si       1.07100234      -2.67468768       2.30265846       0.00000000
Si      -2.13811856       0.76929525      -2.91073073       0.00000000
Si      -0.26404787      -0.38084391      -3.68581243       0.00000000
Si       0.29836764       3.28632831      -1.76435532       0.00000000
