10
Lattice="16.28999089631971 0.0 0.0 0.0 16.28999089631971 0.0 0.0 0.0 34.642051614445585" Properties=species:S:1:pos:R:3:initial_magmoms:R:1 pbc="T T T"
Si      -1.40654376       1.24317135       1.35045185       0.00000000
Si       1.34920296       1.36086660      -1.35457426       0.00000000
Si      -1.36244673      -1.35218403      -1.35824632       0.00000000
Si       1.38277665      -1.14456798       1.67387023       0.00000000
Si      -1.90224846      -0.45745578       2.94980699       0.00000000
Si       0.35548038       2.48738526       2.64620388       0.00000000
Si       2.05785054       0.81303390       2.94734740       0.00000000
Si      -0.28421163      -2.35151037       2.94031506       0.00000000
Si       2.70207117      -2.68574859       0.03429565       0.00000000
Si       2.70567126       0.00602730      -2.71604229       0.00000000
