10
Lattice="16.28999089631971 0.0 0.0 0.0 16.28999089631971 0.0 0.0 0.0 34.642051614445585" Properties=species:S:1:pos:R:3:initial_magmoms:R:1 pbc="T T T"
Si       1.35150964       1.35177678       1.36919321       0.00000000
Si      -1.35532377       1.35733167      -1.36150267       0.00000000
Si       1.35978007      -1.35679410      -1.36094840       0.00000000
Si      -1.34535429      -1.36788759       1.39143342       0.00000000
Si       2.67670277      -0.12000843       2.70506075       0.00000000
Si      -2.71131966       2.71379997       0.00041570       0.00000000
Si      -2.71268802      -2.71601541      -0.00273672       0.00000000
Si      -2.71327446       0.00061902      -2.71860580       0.00000000
Si       0.00163702      -2.71451673      -2.71829403       0.00000000
Si       0.00117476       2.71539639      -2.71829403       0.00000000
