10
Lattice="16.28999089631971 0.0 0.0 0.0 16.28999089631971 0.0 0.0 0.0 34.642051614445585" Properties=species:S:1:pos:R:3:initial_magmoms:R:1 pbc="T T T"
Si      -0.23349597      -1.28862045      -2.00594912       0.00000000
Si      -1.71240547      -0.45154251       1.64508267       0.00000000
Si       2.24590882      -0.72107685       0.59844178       0.00000000
Si      -0.32597593       2.33570907      -0.60578590       0.00000000
Si       2.44104673       0.60258339       2.49069562       0.00000000
Si      -0.57818423      -1.77580548       3.16077720       0.00000000
Si      -3.50564125      -1.42032510       0.43191734       0.00000000
Si       1.65482617      -0.80335764      -3.34268271       0.00000000
Si      -2.92807930       0.98323182      -2.31720813       0.00000000
Si       1.75719253       3.43722258      -0.23452682       0.00000000
