10
Lattice="16.28999089631971 0.0 0.0 0.0 16.28999089631971 0.0 0.0 0.0 34.642051614445585" Properties=species:S:1:pos:R:3:initial_magmoms:R:1 pbc="T T T"
Si      -0.19513791      -1.32366024      -1.89225384       0.00000000
Si      -1.39883859      -0.98929170       1.61830435       0.00000000
Si       2.34403326       0.19130976       0.25115501       0.00000000
Si      -0.69309063       2.26740510      -0.41930763       0.00000000
Si      -2.44104673      -0.60258339      -2.49069562       0.00000000
Si       0.48483927       3.22787979       1.37210315       0.00000000
Si       1.48460544      -0.38374353      -3.27183968       0.00000000
Si       2.57204439       2.47173057       0.74747197       0.00000000
Si      -2.12088469       0.75191382       2.96508414       0.00000000
Si      -0.04580748       1.86802317       3.27308679       0.00000000
