10
Lattice="10.86 0.0 0.0 0.0 10.86 0.0 0.0 0.0 10.86" Properties=species:S:1:pos:R:3:initial_magmoms:R:1 pbc="T T T"
Si       1.01815758      -1.32280230      -1.34440284       0.00000000
Si       1.01815758       1.39219770       1.37059716       0.00000000
Si      -1.69684242      -1.32280230       1.37059716       0.00000000
Si       2.37565758      -2.68030230       0.01309716       0.00000000
Si      -2.83325454       0.35880354      -2.16537540       0.00000000
Si       2.37565758       0.03469770      -2.70190284       0.00000000
Si       2.37565758       0.03469770       2.72809716       0.00000000
Si       2.37565758       2.74969770       0.01309716       0.00000000
Si      -0.33934242      -2.68030230      -2.70190284       0.00000000
Si      -0.33934242      -2.68030230       2.72809716       0.00000000
