10
Lattice="10.86 0.0 0.0 0.0 10.86 0.0 0.0 0.0 10.86" Properties=species:S:1:pos:R:3:initial_magmoms:R:1 pbc="T T T"
Si       1.58512560      -1.62747960      -0.98828172       0.00000000
Si       1.58512560       1.08752040       1.72671828       0.00000000
Si      -1.12987440      -1.62747960       1.72671828       0.00000000
Si      -2.25008340       2.35948704       0.37870992       0.00000000
Si       0.01146816       2.51107092      -2.33934174       0.00000000
Si       2.94262560      -0.26997960      -2.34578172       0.00000000
Si      -3.34616148      -1.41853320      -1.09235310       0.00000000
Si       2.94262560       2.44502040       0.36921828       0.00000000
Si       0.56696802      -3.01967730      -2.35887888       0.00000000
Si       0.22762560       2.44502040       3.08421828       0.00000000
