10
Lattice="10.86 0.0 0.0 0.0 10.86 0.0 0.0 0.0 10.86" Properties=species:S:1:pos:R:3:initial_magmoms:R:1 pbc="T T T"
Si       1.35750000       1.35750000       1.35750000       0.00000000
Si      -1.35750000       1.35750000      -1.35750000       0.00000000
Si       1.35750000      -1.35750000      -1.35750000       0.00000000
Si      -1.35750000      -1.35750000       1.35750000       0.00000000
Si      -2.48861244       0.10080252       2.52213726       0.00000000
Si      -0.09255978      -2.41932564      -2.82239454       0.00000000
Si      -0.13382778       2.49075186      -2.77063578       0.00000000
Si       0.12374970       2.77420872       2.54905920       0.00000000
Si      -0.09962964      -2.68564542       2.64650598       0.00000000
Si       2.49382524      -0.16581048       2.83533966       0.00000000
