10
Lattice="10.86 0.0 0.0 0.0 10.86 0.0 0.0 0.0 10.86" Properties=species:S:1:pos:R:3:initial_magmoms:R:1 pbc="T T T"
Si       1.23375030      -1.41670872      -1.19155920       0.00000000
Si      -1.48124970       1.29829128      -1.19155920       0.00000000
Si       1.23375030       1.29829128       1.52344080       0.00000000
Si      -1.70088234      -2.08523946       2.07399936       0.00000000
Si       2.59125030      -0.05920872      -2.54905920       0.00000000
Si      -0.12374970       2.65579128      -2.54905920       0.00000000
Si       2.59125030       2.65579128       0.16594080       0.00000000
Si      -2.61236214      -2.67340620      -0.02692194       0.00000000
Si      -0.12374970      -2.77420872      -2.54905920       0.00000000
Si       2.37007554      -2.94001920       0.28628046       0.00000000
