10
Lattice="10.86 0.0 0.0 0.0 10.86 0.0 0.0 0.0 10.86" Properties=species:S:1:pos:R:3:initial_magmoms:R:1 pbc="T T T"
Si       1.42296408       1.20491700       1.25026836       0.00000000
Si      -1.29203592       1.20491700      -1.46473164       0.00000000
Si      -1.29203592      -1.51008300       1.25026836       0.00000000
Si       1.48929696      -1.20794694      -1.52024796       0.00000000
Si       2.64663630       2.33816886      -0.16286742       0.00000000
Si       0.06546408       2.56241700       2.60776836       0.00000000
Si      -2.64953592       2.56241700      -0.10723164       0.00000000
Si      -2.64953592      -0.15258300       2.60776836       0.00000000
Si       2.68790430      -2.57190864      -0.21462618       0.00000000
Si       0.10778550       2.51052792      -2.78467776       0.00000000
