10
Lattice="10.86 0.0 0.0 0.0 10.86 0.0 0.0 0.0 10.86" Properties=species:S:1:pos:R:3:initial_magmoms:R:1 pbc="T T T"
Si      -1.25787036       1.32814542      -1.28900598       0.00000000
Si      -1.25787036      -1.38685458       1.42599402       0.00000000
Si       1.45712964      -1.38685458      -1.28900598       0.00000000
Si       2.59345488       2.51983494       0.18883368       0.00000000
Si      -2.38898280       2.78644794      -0.12436872       0.00000000
Si      -2.61537036      -0.02935458      -2.64650598       0.00000000
Si       2.70013266       0.34953996       2.56050564       0.00000000
Si       0.09962964       2.68564542      -2.64650598       0.00000000
Si      -2.61537036      -2.74435458       0.06849402       0.00000000
Si       0.09962964      -2.74435458      -2.64650598       0.00000000
