10
Lattice="10.86 0.0 0.0 0.0 10.86 0.0 0.0 0.0 10.86" Properties=species:S:1:pos:R:3:initial_magmoms:R:1 pbc="T T T"
Si      -1.58155266       1.63020546       0.81078588       0.00000000
Si       0.81467376       1.68530910      -1.61067918       0.00000000
Si      -1.68414708      -0.78346212      -1.69382334       0.00000000
Si      -0.36630780      -2.47041108       2.82584802       0.00000000
Si       2.26772004       0.33961392      -3.01990536       0.00000000
Si       2.26772004       3.05461392      -0.30490536       0.00000000
Si      -0.44727996      -2.37538608      -3.01990536       0.00000000
Si      -0.44727996       3.05461392       2.41009464       0.00000000
Si      -3.16227996      -2.37538608      -0.30490536       0.00000000
Si       3.60750738      -1.13204640      -1.24373064       0.00000000
