10
Lattice="10.86 0.0 0.0 0.0 10.86 0.0 0.0 0.0 10.86" Properties=species:S:1:pos:R:3:initial_magmoms:R:1 pbc="T T T"
Si       1.31606910       1.31666640       1.18133994       0.00000000
Si      -1.39893090      -1.39833360       1.18133994       0.00000000
Si       1.39704126      -1.49335860      -1.11790668       0.00000000
Si      -1.39893090       1.31666640      -1.53366006       0.00000000
Si       2.67356910      -0.04083360       2.53883994       0.00000000
Si      -0.04143090       2.67416640       2.53883994       0.00000000
Si      -0.04143090      -2.75583360       2.53883994       0.00000000
Si      -2.75643090      -0.04083360       2.53883994       0.00000000
Si      -2.75643090       2.67416640      -0.17616006       0.00000000
Si       2.88587124       2.61032046      -0.09935814       0.00000000
