10
Lattice="16.28999089631971 0.0 0.0 0.0 16.28999089631971 0.0 0.0 0.0 34.433804113860816" Properties=species:S:1:pos:R:3:initial_magmoms:R:1 pbc="T T T"
Si       1.07320149       1.70522091       1.30778146       0.00000000
Si      -1.80225718      -1.16880098       1.18770039       0.00000000
Si       1.21378419      -2.12844814      -0.37253889       0.00000000
Si      -0.05587470       1.41628518      -2.08107633       0.00000000
Si      -1.50061037      -0.43533396      -2.67492205       0.00000000
Si       0.39755745      -2.02072563      -2.65074951       0.00000000
Si       2.36077938       0.30371076       2.65008421       0.00000000
Si      -0.39799728      -2.41304489       2.66331024       0.00000000
Si       2.45052099       2.88629478      -0.23817811       0.00000000
Si       1.95931233       0.97588503      -3.30908978       0.00000000
