10
Lattice="16.28999089631971 0.0 0.0 0.0 16.28999089631971 0.0 0.0 0.0 34.433804113860816" Properties=species:S:1:pos:R:3:initial_magmoms:R:1 pbc="T T T"
Si       1.35599589      -1.34788347       1.36023932       0.00000000
Si      -1.32908481      -1.35830907      -1.37930878       0.00000000
Si      -1.35780408       1.36832742       1.35707141       0.00000000
Si       1.37106414       1.35866745      -1.37977019       0.00000000
Si      -2.61666270       0.04320108      -2.72161152       0.00000000
Si      -0.10526598       2.65328262      -2.69656436       0.00000000
Si       2.70817992      -2.70513369       0.00292687       0.00000000
Si      -0.00188964      -2.70623978       2.71517584       0.00000000
Si      -2.71440270      -2.71014938      -0.00320235       0.00000000
Si       2.71324611       0.00812871       2.71617442       0.00000000
