10
Lattice="16.28999089631971 0.0 0.0 0.0 16.28999089631971 0.0 0.0 0.0 34.433804113860816" Properties=species:S:1:pos:R:3:initial_magmoms:R:1 pbc="T T T"
Si      -2.37487023       0.33580206       0.24844004       0.00000000
Si      -0.49746402      -2.41387175       0.48245230       0.00000000
Si       1.24945929       0.81075330       2.02763569       0.00000000
Si       1.17051795       0.56425302      -2.95225271       0.00000000
Si       2.11664115       2.97676944       1.23011391       0.00000000
Si      -1.88385705      -3.06700694      -1.40366038       0.00000000
Si       2.67374286      -1.13391432       2.63136391       0.00000000
Si      -3.38996529      -1.41801518       1.49156993       0.00000000
Si      -1.64274876      -2.63939539       2.54638124       0.00000000
Si      -3.00159540       2.40823215       1.32952435       0.00000000
