10
Lattice="16.28999089631971 0.0 0.0 0.0 16.28999089631971 0.0 0.0 0.0 34.433804113860816" Properties=species:S:1:pos:R:3:initial_magmoms:R:1 pbc="T T T"
Si      -0.68053104      -2.19611517      -0.37477773       0.00000000
Si       1.10195334      -0.02801880       2.09123496       0.00000000
Si      -1.97910468       1.32488199      -0.32632934       0.00000000
Si       1.98294912       0.83930967      -1.17508866       0.00000000
Si       1.30846167       2.31687783       1.92151064       0.00000000
Si       1.95574482       3.02448285      -0.26851495       0.00000000
Si       2.99107206      -1.40569179       1.53089335       0.00000000
Si      -2.31542802      -1.95276701      -2.04760731       0.00000000
Si       1.14613182      -3.56935796      -0.72190511       0.00000000
Si      -1.50146559       2.84381046      -2.05886717       0.00000000
