10
Lattice="16.28999089631971 0.0 0.0 0.0 16.28999089631971 0.0 0.0 0.0 34.433804113860816" Properties=species:S:1:pos:R:3:initial_magmoms:R:1 pbc="T T T"
Si       1.92231774       1.59174477      -0.21772507       0.00000000
Si       0.89479341      -0.96115887       2.50626583       0.00000000
Si       2.26957167      -0.08798229      -1.86390286       0.00000000
Si       2.65935879      -0.01197315       1.33620452       0.00000000
Si      -0.86599269       0.66121110       2.94212917       0.00000000
Si       0.78429834      -1.51830945      -3.03833727       0.00000000
Si       0.74502315       3.39801255       0.45838306       0.00000000
Si      -3.03893208       0.43859196       1.94561432       0.00000000
Si      -0.05132979      -3.37367529      -1.67610079       0.00000000
Si      -0.94112217       3.19609800      -1.80712148       0.00000000
