10
Lattice="16.28999089631971 0.0 0.0 0.0 16.28999089631971 0.0 0.0 0.0 34.433804113860816" Properties=species:S:1:pos:R:3:initial_magmoms:R:1 pbc="T T T"
Si      -1.03588110      -1.70392490      -1.29694996       0.00000000
Si       1.79629830       0.99393435      -1.25631805       0.00000000
Si       0.55148166      -1.78267076       1.70333794       0.00000000
Si      -1.71765018       1.88209773       0.09772319       0.00000000
Si      -2.83264855      -1.15590093       1.45338282       0.00000000
Si      -2.33541748      -0.32416123      -2.70939096       0.00000000
Si       0.41163201       2.40749910      -2.68632030       0.00000000
Si       0.06046848       1.62013824       3.35543835       0.00000000
Si      -2.37267108      -3.18833486       0.01694144       0.00000000
Si      -3.60403169       1.16120007      -1.31730035       0.00000000
