10
Lattice="16.28999089631971 0.0 0.0 0.0 16.28999089631971 0.0 0.0 0.0 34.433804113860816" Properties=species:S:1:pos:R:3:initial_magmoms:R:1 pbc="T T T"
Si      -1.14833097       1.28466198       1.55513476       0.00000000
Si       2.24117820       0.57780630       0.29719833       0.00000000
Si      -0.19868913      -2.33303751       0.13105513       0.00000000
Si      -0.06727770       0.54117009      -2.28427097       0.00000000
Si       1.69350840      -1.08119988      -2.72013431       0.00000000
Si       2.54278755       2.58204645      -0.88742850       0.00000000
Si       3.49920603      -0.74525121      -1.14358171       0.00000000
Si       0.79232931      -2.99025756       2.16371816       0.00000000
Si       0.85612095       2.71656927      -2.59448529       0.00000000
Si       0.82632654      -3.24721602      -1.92261253       0.00000000
