10
Lattice="16.28999089631971 0.0 0.0 0.0 16.28999089631971 0.0 0.0 0.0 34.433804113860816" Properties=species:S:1:pos:R:3:initial_magmoms:R:1 pbc="T T T"
Si      -1.35682668      -1.34614044       1.37794864       0.00000000
Si       1.35628911       1.37011932       1.37639912       0.00000000
Si      -1.47779622       1.30849425      -1.32941761       0.00000000
Si       1.23655761      -1.46963493      -1.49372204       0.00000000
Si       2.69796609      -2.71463076      -0.00561960       0.00000000
Si      -2.73025287      -2.69438229       0.01775752       0.00000000
Si       2.70837540       2.72616408       0.01191410       0.00000000
Si      -0.00127062      -2.70422145       2.73736155       0.00000000
Si       2.71326240       0.01198944       2.73756815       0.00000000
Si      -2.71886616       0.01124010       2.73749929       0.00000000
