10
Lattice="16.28999089631971 0.0 0.0 0.0 16.28999089631971 0.0 0.0 0.0 34.433804113860816" Properties=species:S:1:pos:R:3:initial_magmoms:R:1 pbc="T T T"
Si      -1.36045935      -1.35360126      -1.33124949       0.00000000
Si      -1.35672894       1.35277047       1.35614170       0.00000000
Si       1.35711990      -1.36023129       1.35476435       0.00000000
Si       1.35547461       1.36785501      -1.36006371       0.00000000
Si       2.59818984      -0.06297714      -2.71215255       0.00000000
Si      -0.00457749      -2.60895753      -2.71007275       0.00000000
Si      -2.72458884      -0.04510701      -2.67112465       0.00000000
Si      -0.11282454       2.62428642      -2.76915086       0.00000000
Si       0.00172674       2.71292031       2.71214566       0.00000000
Si      -2.71272483      -0.00218286       2.71259330       0.00000000
