10
Lattice="16.28999089631971 0.0 0.0 0.0 16.28999089631971 0.0 0.0 0.0 34.433804113860816" Properties=species:S:1:pos:R:3:initial_magmoms:R:1 pbc="T T T"
Si       1.35394335       1.33947783       1.35459218       0.00000000
Si       1.35485559      -1.35855342      -1.35868980       0.00000000
Si      -1.35853713       1.35780408      -1.35789782       0.00000000
Si      -1.36344042      -1.36360332       1.38634016       0.00000000
Si       2.70888039      -2.71480995      -0.00165282       0.00000000
Si       2.71037907       2.71518462       0.00420093       0.00000000
Si       2.71241532      -0.00030951      -2.71558905       0.00000000
Si      -0.00156384       2.71451673      -2.71576121       0.00000000
Si      -0.00190593      -2.71590138      -2.71583008       0.00000000
Si      -2.71783989      -0.00003258      -2.71514141       0.00000000
