10
Lattice="16.28999089631971 0.0 0.0 0.0 16.28999089631971 0.0 0.0 0.0 34.433804113860816" Properties=species:S:1:pos:R:3:initial_magmoms:R:1 pbc="T T T"
Si      -0.24542514      -0.02308293       2.33144531       0.00000000
Si       0.71157978       2.27629944       0.35091509       0.00000000
Si       1.79364303      -1.67327622      -0.31840956       0.00000000
Si      -1.75733262      -0.85292811      -1.63350615       0.00000000
Si       1.32581052       2.38643613      -1.87784856       0.00000000
Si      -2.33199495      -1.00766682       2.71107821       0.00000000
Si       2.20447683       0.46714833      -3.04636035       0.00000000
Si      -0.51725637      -2.26543401      -3.05438343       0.00000000
Si       0.82272645      -3.55892517      -1.60306665       0.00000000
Si       2.98885662       2.51475246       0.96111688       0.00000000
