10
Lattice="16.28999089631971 0.0 0.0 0.0 16.28999089631971 0.0 0.0 0.0 34.433804113860816" Properties=species:S:1:pos:R:3:initial_magmoms:R:1 pbc="T T T"
Si      -1.33998282       1.29349116      -1.45131679       0.00000000
Si      -1.90751013      -0.70837065       1.21554840       0.00000000
Si       1.36184400      -1.42856784      -1.42614566       0.00000000
Si       0.97091658       1.88564895       1.28465708       0.00000000
Si      -2.58005907       2.70599706      -0.03043950       0.00000000
Si      -2.65194684      -2.70811476       0.06218748       0.00000000
Si       2.75408514       2.64181446      -0.07689073       0.00000000
Si       0.00224802       2.64881916      -2.81155611       0.00000000
Si       1.91203875      -1.31044905       3.09177857       0.00000000
Si      -2.70865233      -0.06297714      -2.81310563       0.00000000
