10
Lattice="16.28999089631971 0.0 0.0 0.0 16.28999089631971 0.0 0.0 0.0 34.433804113860816" Properties=species:S:1:pos:R:3:initial_magmoms:R:1 pbc="T T T"
Si       1.98031014       1.17302661      -0.33497223       0.00000000
Si      -0.18814950      -0.20414628       2.38195973       0.00000000
Si       0.35893386      -2.10360915      -1.09472011       0.00000000
Si      -1.75143564       0.73002006      -1.53550748       0.00000000
Si       0.86367951      -1.00152549      -3.14163874       0.00000000
Si       3.44582370      -0.36284346       0.76584267       0.00000000
Si       2.02846338       1.07479791      -2.70880558       0.00000000
Si      -2.36113776       0.60448932       2.69138207       0.00000000
Si      -1.71566280      -3.26016657      -0.76391437       0.00000000
Si      -3.46070462      -0.88848918       1.28600000       0.00000000
