10
Lattice="16.28999089631971 0.0 0.0 0.0 16.28999089631971 0.0 0.0 0.0 34.433804113860816" Properties=species:S:1:pos:R:3:initial_magmoms:R:1 pbc="T T T"
Si       1.63365894      -1.51931943      -0.76894171       0.00000000
Si      -1.75110984      -0.80822835      -1.47356104       0.00000000
Si       1.25952651       2.06435025      -0.24881881       0.00000000
Si      -0.63873090      -0.39615651       2.40840491       0.00000000
Si       1.88286336      -0.96692553      -3.08967810       0.00000000
Si       3.66956685      -0.85739157       0.26310884       0.00000000
Si      -2.84405481      -1.47968586       2.08761941       0.00000000
Si       3.59256402       1.26982179      -0.83347069       0.00000000
Si      -0.26810082       3.64130370      -1.47201151       0.00000000
Si      -2.23259337      -3.12898320      -0.92124251       0.00000000
