10
Lattice="16.28999089631971 0.0 0.0 0.0 16.28999089631971 0.0 0.0 0.0 34.433804113860816" Properties=species:S:1:pos:R:3:initial_magmoms:R:1 pbc="T T T"
Si      -0.56692458       1.84114467       1.48117190       0.00000000
Si      -2.20532391      -1.08352935      -0.32078550       0.00000000
Si       0.63873090       0.39615651      -2.40840491       0.00000000
Si       2.03341554      -1.16379018       1.26926516       0.00000000
Si      -1.38166893       0.09640422       2.84704503       0.00000000
Si       1.77906348      -3.15161001      -0.12199904       0.00000000
Si      -3.21333282      -0.81583578       1.73818053       0.00000000
Si      -1.11237894      -0.41207184      -3.88196594       0.00000000
Si       2.27238984      -1.12316292      -3.17734662       0.00000000
Si       1.22109840       2.64238461       2.84496522       0.00000000
