10
Lattice="16.28999089631971 0.0 0.0 0.0 16.28999089631971 0.0 0.0 0.0 34.433804113860816" Properties=species:S:1:pos:R:3:initial_magmoms:R:1 pbc="T T T"
Si       1.34814411       1.32851466      -1.37284210       0.00000000
Si       1.37233476      -1.38425904       1.36640298       0.00000000
Si      -1.37950236      -1.37725434      -1.36826240       0.00000000
Si      -0.87866631       1.91928780       1.16851180       0.00000000
Si      -0.41083380      -2.14042455       2.72795079       0.00000000
Si      -2.20447683      -0.46714833       3.04636035       0.00000000
Si       2.71264338       2.68493409       0.01501315       0.00000000
Si      -0.01741401       2.69592984      -2.72485174       0.00000000
Si       2.69783577      -0.01708821      -2.73046446       0.00000000
Si       2.69747739      -2.75156019      -0.01459994       0.00000000
