10
Lattice="16.28999089631971 0.0 0.0 0.0 16.28999089631971 0.0 0.0 0.0 34.433804113860816" Properties=species:S:1:pos:R:3:initial_magmoms:R:1 pbc="T T T"
Si       0.11181782      -1.59726708      -1.70561057       0.00000000
Si       1.82957877       1.35643572      -0.59876975       0.00000000
Si      -2.32569791       0.46529127      -0.24992069       0.00000000
Si       0.32129744      -0.69634863       2.28633700       0.00000000
Si      -2.95028909      -1.39976712       1.13094449       0.00000000
Si       3.45968649       0.08237853       0.53699548       0.00000000
Si       0.99455337       3.36165327       0.33418026       0.00000000
Si      -1.95439994      -0.31170915       3.06078812       0.00000000
Si      -0.86784065      -0.35521974      -3.54052015       0.00000000
Si       2.56272651       0.00778662       2.80966225       0.00000000
