10
Lattice="16.28999089631971 0.0 0.0 0.0 16.28999089631971 0.0 0.0 0.0 34.433804113860816" Properties=species:S:1:pos:R:3:initial_magmoms:R:1 pbc="T T T"
Si      -1.35218403       1.35725022       1.35731245       0.00000000
Si       1.36223496      -1.35714753       1.35645160       0.00000000
Si      -1.36529748      -1.34564726      -1.36486723       0.00000000
Si       1.35117405       1.38080556      -1.34569448       0.00000000
Si       2.69542485       0.08580920      -2.71506221       0.00000000
Si      -2.44007910       0.11488197      -2.94638519       0.00000000
Si      -2.70817992       2.70513369      -0.00292687       0.00000000
Si      -2.71006956      -0.00110609       2.71224896       0.00000000
Si      -2.71396287      -2.71097270       0.00058537       0.00000000
Si       0.00506619       2.71326240       2.71324755       0.00000000
