10
Lattice="16.28999089631971 0.0 0.0 0.0 16.28999089631971 0.0 0.0 0.0 34.433804113860816" Properties=species:S:1:pos:R:3:initial_magmoms:R:1 pbc="T T T"
Si       1.35718506       1.35673214       1.35720915       0.00000000
Si      -1.35798327      -1.35804428       1.35614170       0.00000000
Si      -1.36223496       1.35714753      -1.35645160       0.00000000
Si       1.35648459      -1.35752300      -1.36313177       0.00000000
Si      -0.00037467       2.71369728       2.71390179       0.00000000
Si       2.71419093       2.71433259      -0.00030990       0.00000000
Si      -2.71441899       2.71439775       0.00086085       0.00000000
Si       2.71451673      -0.00136223       2.71438386       0.00000000
Si      -2.71523349      -0.00101432       2.71414282       0.00000000
Si      -0.00030951      -2.71693979       2.71362632       0.00000000
