10
Lattice="16.28999089631971 0.0 0.0 0.0 16.28999089631971 0.0 0.0 0.0 34.433804113860816" Properties=species:S:1:pos:R:3:initial_magmoms:R:1 pbc="T T T"
Si      -1.44111114       1.28288148       1.30146079       0.00000000
Si      -1.35881406      -1.33548256      -1.36481902       0.00000000
Si       1.35664749       1.37633721      -1.36199545       0.00000000
Si       1.39413078      -1.19592074       1.58898321       0.00000000
Si       0.38944503       2.13584217       2.64741007       0.00000000
Si       2.34202959       0.74941656       2.74923089       0.00000000
Si       2.70658350      -2.69051734       0.02754706       0.00000000
Si      -2.70485676      -2.70504802       0.01931737       0.00000000
Si      -0.00408879      -2.69576272      -2.72337109       0.00000000
Si       2.71011843       0.01853476      -2.72333666       0.00000000
