10
Lattice="16.28999089631971 0.0 0.0 0.0 16.28999089631971 0.0 0.0 0.0 34.433804113860816" Properties=species:S:1:pos:R:3:initial_magmoms:R:1 pbc="T T T"
Si       1.35998694      -1.35544596       1.35696811       0.00000000
Si      -1.35742941      -1.35623637      -1.35882754       0.00000000
Si      -1.35363384       1.35968069       1.36058366       0.00000000
Si       1.35742941       1.35847523      -1.35906857       0.00000000
Si      -0.00017919      -2.71326633      -2.71682866       0.00000000
Si      -2.71611315      -2.71401567       0.00123962       0.00000000
Si       2.71471221      -2.71572612      -0.00158396       0.00000000
Si       2.71498914       0.00151008      -2.71576121       0.00000000
Si       0.00063531       2.71518788      -2.71617442       0.00000000
Si      -2.71450044       0.00081939      -2.71717300       0.00000000
