10
Lattice="16.28999089631971 0.0 0.0 0.0 16.28999089631971 0.0 0.0 0.0 34.433804113860816" Properties=species:S:1:pos:R:3:initial_magmoms:R:1 pbc="T T T"
Si      -1.36647036      -1.33206588      -1.34197562       0.00000000
Si      -1.35676152       1.35822762       1.35868980       0.00000000
Si       1.35878148      -1.35568638       1.35986055       0.00000000
Si       1.37054286       1.37363796      -1.38848195       0.00000000
Si      -0.02221956      -2.62706224      -2.71134335       0.00000000
Si      -2.50717761       0.10697643      -2.87971786       0.00000000
Si      -2.70884781       2.71570590       0.00141179       0.00000000
Si      -2.71257822       0.00039096       2.71696640       0.00000000
Si      -2.71764441      -2.71287144       0.00371885       0.00000000
Si       0.00177561      -2.71328683       2.71737960       0.00000000
