10
Lattice="16.28999089631971 0.0 0.0 0.0 16.28999089631971 0.0 0.0 0.0 34.433804113860816" Properties=species:S:1:pos:R:3:initial_magmoms:R:1 pbc="T T T"
Si      -1.35725022      -1.35601218      -1.35593510       0.00000000
Si       1.35679410      -1.35671265       1.35710585       0.00000000
Si       1.35581670       1.35783666      -1.35827660       0.00000000
Si      -1.35770634       1.35791811       1.35724358       0.00000000
Si      -0.00506619      -2.71326240      -2.71324755       0.00000000
Si       2.71435383      -2.71367780       0.00041321       0.00000000
Si      -2.71324611      -0.00812871      -2.71617442       0.00000000
Si      -2.71513575      -2.71436849      -0.00099858       0.00000000
Si       2.71257822      -0.00039096      -2.71696640       0.00000000
Si      -0.00094482       2.71526607       2.71438386       0.00000000
