10
Lattice="16.28999089631971 0.0 0.0 0.0 16.28999089631971 0.0 0.0 0.0 34.433804113860816" Properties=species:S:1:pos:R:3:initial_magmoms:R:1 pbc="T T T"
Si      -1.35208629       1.35747828      -1.35727802       0.00000000
Si      -1.35581670      -1.35783666       1.35827660       0.00000000
Si       1.35676152      -1.35822762      -1.35868980       0.00000000
Si       1.35866745       1.35786924       1.35806999       0.00000000
Si      -0.00970884      -2.69029350      -2.70066543       0.00000000
Si      -2.71306692      -2.71384884       0.00234150       0.00000000
Si      -2.71373481       2.71432125       0.00065424       0.00000000
Si      -2.71352304       0.00008145       2.71552018       0.00000000
Si       2.71554300      -2.71391400       0.00117075       0.00000000
Si       0.00097740      -2.71454931       2.71538244       0.00000000
