10
Lattice="16.28999089631971 0.0 0.0 0.0 16.28999089631971 0.0 0.0 0.0 34.433804113860816" Properties=species:S:1:pos:R:3:initial_magmoms:R:1 pbc="T T T"
Si      -1.33107219      -1.37552760       1.33014416       0.00000000
Si       1.28552535      -1.40639715      -1.35448888       0.00000000
Si      -1.43345484       1.29741705      -1.35562519       0.00000000
Si       0.87975774       1.85046255       1.27673730       0.00000000
Si      -1.67832612       0.30419946       2.97632196       0.00000000
Si       2.64207510      -0.04315221      -2.70935652       0.00000000
Si       0.22384089      -2.51489907       2.82439993       0.00000000
Si      -0.07701912       2.67312384      -2.70601644       0.00000000
Si      -2.75859747       2.66471820       0.02537773       0.00000000
Si       2.50939305      -2.90274768       0.00547498       0.00000000
