10
Lattice="16.28999089631971 0.0 0.0 0.0 16.28999089631971 0.0 0.0 0.0 34.433804113860816" Properties=species:S:1:pos:R:3:initial_magmoms:R:1 pbc="T T T"
Si       2.01518703      -0.44040015      -1.22801344       0.00000000
Si      -1.44473567      -1.85161914      -0.59384572       0.00000000
Si       0.05587470      -1.41628518       2.08107633       0.00000000
Si      -0.24783606       2.45786778      -0.72879187       0.00000000
Si      -2.50397174       1.85590341      -1.14186002       0.00000000
Si       2.50639569       1.47000960       1.84289823       0.00000000
Si       0.45343215      -3.43701081      -0.56967317       0.00000000
Si       1.12907619       0.28893573       3.38885779       0.00000000
Si       3.59837955       0.05251896       0.32991046       0.00000000
Si      -1.66743788      -1.37658645      -2.93162685       0.00000000
