10
Lattice="16.28999089631971 0.0 0.0 0.0 16.28999089631971 0.0 0.0 0.0 34.433804113860816" Properties=species:S:1:pos:R:3:initial_magmoms:R:1 pbc="T T T"
Si       2.13298002      -0.75867417      -0.85485410       0.00000000
Si      -2.02124691      -1.15931043      -0.79724631       0.00000000
Si       0.15804558       1.63255122       1.85594865       0.00000000
Si       0.53683695       0.38695266      -2.49683097       0.00000000
Si      -1.28420586      -2.76302835       0.75668327       0.00000000
Si      -3.19854150       0.64695735      -0.12113819       0.00000000
Si      -1.26918648       2.13558642      -2.50037765       0.00000000
Si       0.17922258      -0.01029528       3.57498841       0.00000000
Si       1.98206946      -3.03093369      -0.50039232       0.00000000
Si      -2.33854353       2.79029781      -0.53368983       0.00000000
