10
Lattice="16.28999089631971 0.0 0.0 0.0 16.28999089631971 0.0 0.0 0.0 34.433804113860816" Properties=species:S:1:pos:R:3:initial_magmoms:R:1 pbc="T T T"
Si       2.05534188       1.16111862       0.03519137       0.00000000
Si       0.02117700      -1.64284650       1.71903976       0.00000000
Si      -1.55791044       1.81631871      -0.34705851       0.00000000
Si      -0.15804558      -1.63255122      -1.85594865       0.00000000
Si      -2.35753767      -1.68151896       1.90350176       0.00000000
Si      -2.49658911       1.15774659      -2.38963847       0.00000000
Si       3.87037368      -0.28523790       0.24854334       0.00000000
Si      -0.51253227       3.89431998       0.20825576       0.00000000
Si      -3.35658708      -0.98559387      -1.97708684       0.00000000
Si       2.43294408       2.69187363       1.84300153       0.00000000
