10
Lattice="16.28999089631971 0.0 0.0 0.0 16.28999089631971 0.0 0.0 0.0 34.433804113860816" Properties=species:S:1:pos:R:3:initial_magmoms:R:1 pbc="T T T"
Si      -0.15664464      -1.74575043       1.52614149       0.00000000
Si       0.50723802      -0.33603012      -2.25689608       0.00000000
Si       2.11312251       0.76271409       0.71756644       0.00000000
Si      -1.64533887       1.69802073      -0.14024896       0.00000000
Si       0.86291388       1.97058501      -2.65725815       0.00000000
Si       1.84759551      -2.79472869       0.89352328       0.00000000
Si       2.23101324       2.57386887      -0.81246606       0.00000000
Si      -0.68088942       3.35481147       1.24419734       0.00000000
Si      -1.50377877      -0.98197749      -3.26694342       0.00000000
Si      -1.39797522       2.59796178      -2.43188877       0.00000000
