10
Lattice="16.28999089631971 0.0 0.0 0.0 16.28999089631971 0.0 0.0 0.0 34.433804113860816" Properties=species:S:1:pos:R:3:initial_magmoms:R:1 pbc="T T T"
Si       0.12849552      -0.80892882      -2.18479166       0.00000000
Si       0.07700283      -2.12721336       1.09657954       0.00000000
Si       2.26825218       0.62143092       0.54832420       0.00000000
Si      -2.33303751       0.79452846       0.58465189       0.00000000
Si       0.74868840      -0.10959912       2.50674791       0.00000000
Si      -1.01498103       1.62085500       2.49417956       0.00000000
Si      -1.95890508      -2.78914122       0.06452898       0.00000000
Si      -1.70970066      -2.23674732      -2.25620741       0.00000000
Si       2.55761145       2.54441655      -0.81115758       0.00000000
Si       0.28514016       0.93682161      -3.71093314       0.00000000
