10
Lattice="16.28999089631971 0.0 0.0 0.0 16.28999089631971 0.0 0.0 0.0 34.433804113860816" Properties=species:S:1:pos:R:3:initial_magmoms:R:1 pbc="T T T"
Si       0.15664464       1.74575043      -1.52614149       0.00000000
Si      -1.83819618      -1.42781850      -0.07141575       0.00000000
Si      -0.12849552       0.80892882       2.18479166       0.00000000
Si       2.00424015      -1.04897826      -0.63261820       0.00000000
Si       2.26976715       2.50846452      -0.80857504       0.00000000
Si      -3.30370974       0.10805157      -1.17223065       0.00000000
Si      -0.05149269      -1.31828454       3.28137120       0.00000000
Si      -2.08740060      -1.98021240       2.24932064       0.00000000
Si       2.13975666       1.43035974       2.73311586       0.00000000
Si       3.69499554       0.57541167      -0.39464605       0.00000000
