10
Lattice="16.28999089631971 0.0 0.0 0.0 16.28999089631971 0.0 0.0 0.0 34.433804113860816" Properties=species:S:1:pos:R:3:initial_magmoms:R:1 pbc="T T T"
Si      -2.03590791      -0.66192786      -1.03205055       0.00000000
Si      -0.07700283       2.12721336      -1.09657954       0.00000000
Si       2.02812129      -1.18739439      -0.49474517       0.00000000
Si       0.67168557       2.01761424       1.41016837       0.00000000
Si       0.05149269       1.31828454      -3.28137120       0.00000000
Si       2.19124935       2.74864428      -0.54825534       0.00000000
Si       1.49470524      -3.37279563       0.51161775       0.00000000
Si      -2.33549730      -2.89225692      -0.35470281       0.00000000
Si      -3.66956685       0.85739157      -0.26310884       0.00000000
Si      -1.78670349      -0.10953396      -3.35278695       0.00000000
