10
Lattice="16.28999089631971 0.0 0.0 0.0 16.28999089631971 0.0 0.0 0.0 34.433804113860816" Properties=species:S:1:pos:R:3:initial_magmoms:R:1 pbc="T T T"
Si      -1.35835794      -1.35487188       1.35497095       0.00000000
Si       1.35721764       1.35643572       1.35776009       0.00000000
Si       1.35767376      -1.35694071      -1.35686481       0.00000000
Si      -1.35767376       1.35889551      -1.35748462       0.00000000
Si      -2.70804960      -0.00926901       2.71259330       0.00000000
Si       2.70987408       0.00180819       2.71352302       0.00000000
Si      -0.00024435      -2.71427238      -2.71424613       0.00000000
Si      -2.71422351      -2.71430496       0.00048207       0.00000000
Si      -2.71511946       0.00118917      -2.71452160       0.00000000
Si       2.71539639      -2.71456560       0.00079198       0.00000000
