10
Lattice="16.28999089631971 0.0 0.0 0.0 16.28999089631971 0.0 0.0 0.0 34.433804113860816" Properties=species:S:1:pos:R:3:initial_magmoms:R:1 pbc="T T T"
Si       0.15934878       0.84488085       2.18220912       0.00000000
Si      -2.11312251      -0.76271409      -0.71756644       0.00000000
Si       0.11789073       1.81115478      -1.53003251       0.00000000
Si       1.42522839      -1.93305285       0.41392899       0.00000000
Si      -2.26976715      -2.50846452       0.80857504       0.00000000
Si       2.48766219       1.25962425       2.17063936       0.00000000
Si      -1.60588449      -1.09874421      -2.97446253       0.00000000
Si      -0.26552700      -3.55744278       0.17595684       0.00000000
Si      -0.13001049      -1.07810478       3.54169090       0.00000000
Si       2.36436318       2.03468616      -2.08569111       0.00000000
