10
Lattice="16.28999089631971 0.0 0.0 0.0 16.28999089631971 0.0 0.0 0.0 34.433804113860816" Properties=species:S:1:pos:R:3:initial_magmoms:R:1 pbc="T T T"
Si       0.90823266       1.62888990      -1.55010743       0.00000000
Si      -1.19255832       1.10703975       1.82204755       0.00000000
Si      -2.07212058      -0.59953716      -1.20298005       0.00000000
Si       1.57714893      -1.70318466       1.26003690       0.00000000
Si      -1.26311031      -0.13175352      -3.43942245       0.00000000
Si       0.41901138       2.29017919       3.05619951       0.00000000
Si      -2.34028656      -0.55715058       3.05206745       0.00000000
Si      -0.64640349       2.19140803      -3.24067042       0.00000000
Si       2.88929214       0.77067990      -2.68576935       0.00000000
Si       2.01026745       3.48922745      -0.55930859       0.00000000
