10
Lattice="16.28999089631971 0.0 0.0 0.0 16.28999089631971 0.0 0.0 0.0 34.433804113860816" Properties=species:S:1:pos:R:3:initial_magmoms:R:1 pbc="T T T"
Si      -1.39413078       1.19592074      -1.58898321       0.00000000
Si       0.94789881       1.94533730       1.16024768       0.00000000
Si      -1.11149928      -1.55602619       1.55830268       0.00000000
Si       1.31245272      -1.49459660      -1.56143615       0.00000000
Si      -1.00468575       3.33176291       1.05842686       0.00000000
Si       2.13066684      -1.52623178       2.62991769       0.00000000
Si      -2.83524192       2.47880222      -0.28752243       0.00000000
Si      -2.55998979      -2.79194849      -0.07348178       0.00000000
Si       2.74743021       2.69834255      -0.19775345       0.00000000
Si      -0.03748329       2.57225795      -2.95097866       0.00000000
