10
Lattice="16.28999089631971 0.0 0.0 0.0 16.28999089631971 0.0 0.0 0.0 34.433804113860816" Properties=species:S:1:pos:R:3:initial_magmoms:R:1 pbc="T T T"
Si      -0.79272027      -0.92333349       2.02921964       0.00000000
Si       0.04210965       2.37242673       0.23266934       0.00000000
Si      -0.99588915      -1.08805797      -1.92984363       0.00000000
Si       2.27569738      -0.38463948      -0.77445112       0.00000000
Si      -0.37129797       0.77700042      -3.31070881       0.00000000
Si       0.37683657      -3.04525749      -1.79933944       0.00000000
Si      -0.45683676       0.94607433       3.41146218       0.00000000
Si       2.30140463      -2.69098745      -0.50786446       0.00000000
Si       1.95439994       0.31170915      -3.06078812       0.00000000
Si      -1.77393213       3.22959024      -0.93801178       0.00000000
