10
Lattice="16.28999089631971 0.0 0.0 0.0 16.28999089631971 0.0 0.0 0.0 34.433804113860816" Properties=species:S:1:pos:R:3:initial_magmoms:R:1 pbc="T T T"
Si       1.35705474       1.35754344      -1.35679594       0.00000000
Si      -1.35734982       1.35770634       1.35672707       0.00000000
Si       1.35707103      -1.35734796       1.35762235       0.00000000
Si      -1.35898755      -1.35601218      -1.35789782       0.00000000
Si       2.71008585       0.00504990      -2.71596782       0.00000000
Si      -2.71284605      -0.00063531       2.71431499       0.00000000
Si      -0.00034861       2.71463076       2.71445273       0.00000000
Si      -0.00282957      -2.71480995       2.71490037       0.00000000
Si       2.71536381       0.00053757       2.71438386       0.00000000
Si       2.71450044       2.71524978      -0.00003443       0.00000000
