10
Lattice="16.28999089631971 0.0 0.0 0.0 16.28999089631971 0.0 0.0 0.0 34.433804113860816" Properties=species:S:1:pos:R:3:initial_magmoms:R:1 pbc="T T T"
Si       1.35858600       1.35521397      -1.35769122       0.00000000
Si       1.35749457      -1.35755973       1.35731245       0.00000000
Si      -1.35786924       1.35780408       1.35769122       0.00000000
Si      -1.35866745      -1.35786924      -1.35806999       0.00000000
Si      -2.71075374      -0.00039096      -2.71534801       0.00000000
Si       2.71305063       0.00021177      -2.71507254       0.00000000
Si       0.00071676      -2.71313208       2.71545131       0.00000000
Si      -2.71490769       2.71467963       0.00027547       0.00000000
Si       2.71469592       2.71511946       0.00030990       0.00000000
Si      -0.00079821       2.71389771       2.71600225       0.00000000
