10
Lattice="16.28999089631971 0.0 0.0 0.0 16.28999089631971 0.0 0.0 0.0 34.433804113860816" Properties=species:S:1:pos:R:3:initial_magmoms:R:1 pbc="T T T"
Si       1.35683977      -1.35692442       1.35380020       0.00000000
Si       1.35549622       1.35834165      -1.35758792       0.00000000
Si      -1.35974259      -1.35694071      -1.35734688       0.00000000
Si      -1.35804843       1.35764118       1.35948178       0.00000000
Si       0.00345348      -2.69992089       2.70990746       0.00000000
Si       2.71001647      -2.71417464       0.00058537       0.00000000
Si       2.71284605       0.00063531      -2.71431499       0.00000000
Si       2.71249744       2.71526607       0.00013774       0.00000000
Si      -0.00723276       2.71337643       2.71541688       0.00000000
Si      -0.00237834      -2.71446786      -2.71445273       0.00000000
