10
Lattice="16.28999089631971 0.0 0.0 0.0 16.28999089631971 0.0 0.0 0.0 34.433804113860816" Properties=species:S:1:pos:R:3:initial_magmoms:R:1 pbc="T T T"
Si       1.35338629       1.34299647      -1.35610727       0.00000000
Si      -1.49418396       1.19796660       1.36440582       0.00000000
Si      -1.36036161      -1.37398005      -1.34839409       0.00000000
Si       1.42455189      -1.24789545       1.40483113       0.00000000
Si      -0.37497951      -2.00090070       2.76283225       0.00000000
Si      -2.32756407      -0.61447509       2.66101144       0.00000000
Si      -0.16995357       2.52218070       2.77147514       0.00000000
Si       2.70508549       2.67698457       0.01639050       0.00000000
Si      -0.00345348       2.69992089      -2.70990746       0.00000000
Si      -2.71805166       2.69431713       0.00444196       0.00000000
