10
Lattice="16.28999089631971 0.0 0.0 0.0 16.28999089631971 0.0 0.0 0.0 34.433804113860816" Properties=species:S:1:pos:R:3:initial_magmoms:R:1 pbc="T T T"
Si       1.32423039       1.32421410       1.40706932       0.00000000
Si       1.49418396      -1.19796660      -1.36440582       0.00000000
Si      -1.22386770       1.49635053      -1.35996385       0.00000000
Si      -0.83338011      -1.81244169       1.29660562       0.00000000
Si      -0.18440280       1.33532388       3.26770097       0.00000000
Si      -2.28555216       0.38784861       2.81892495       0.00000000
Si       1.11920445      -3.19886730       1.39842643       0.00000000
Si       0.13382235      -2.57194665      -2.71279991       0.00000000
Si      -2.58791085       0.14587695      -2.71734517       0.00000000
Si      -2.66393628      -2.66540238      -0.04934367       0.00000000
