10
Lattice="16.28999089631971 0.0 0.0 0.0 16.28999089631971 0.0 0.0 0.0 34.433804113860816" Properties=species:S:1:pos:R:3:initial_magmoms:R:1 pbc="T T T"
Si      -0.37659222       2.02676922      -1.05450141       0.00000000
Si      -0.33588351      -1.86940782      -1.38224254       0.00000000
Si      -1.23577569       0.04284270       2.02739465       0.00000000
Si       2.34649046       0.12013875       0.40053423       0.00000000
Si       0.49894641       1.42635240      -3.17879284       0.00000000
Si       1.27211868      -3.27276037      -0.27581493       0.00000000
Si       2.26884255       1.14925950       2.48980647       0.00000000
Si       0.45683676      -0.94607433      -3.41146218       0.00000000
Si       3.10537640      -2.08323036       0.70003963       0.00000000
Si      -2.59784775       2.72797227      -0.78144119       0.00000000
