10
Lattice="16.28999089631971 0.0 0.0 0.0 16.28999089631971 0.0 0.0 0.0 34.433804113860816" Properties=species:S:1:pos:R:3:initial_magmoms:R:1 pbc="T T T"
Si      -1.34249148      -1.34951247       1.37834463       0.00000000
Si       1.37761013       1.36643778       1.37610643       0.00000000
Si       1.32200096      -1.38031686      -1.45370994       0.00000000
Si      -1.33450938       1.43088102      -1.46861634       0.00000000
Si       2.25108971       0.56122308      -2.43756244       0.00000000
Si       0.56063242       2.32321464      -2.68614716       0.00000000
Si      -2.68690518      -2.69218314      -0.01182457       0.00000000
Si      -2.69695611       0.00548973       2.73572595       0.00000000
Si      -2.69177589       2.74133007      -0.00045453       0.00000000
Si       2.73167729      -2.70316260      -0.00079542       0.00000000
