10
Lattice="16.28999089631971 0.0 0.0 0.0 16.28999089631971 0.0 0.0 0.0 34.433804113860816" Properties=species:S:1:pos:R:3:initial_magmoms:R:1 pbc="T T T"
Si       1.24308990      -1.40566410      -1.42173813       0.00000000
Si      -1.87004313      -0.86778459       1.20842060       0.00000000
Si      -1.44138807       1.32155883      -1.40620848       0.00000000
Si       1.54702872       0.98357391       1.57424554       0.00000000
Si      -0.27390006      -2.01341142       2.85039746       0.00000000
Si       2.54148435       2.49025230      -0.00609479       0.00000000
Si      -2.62909197       2.73284298       0.10185525       0.00000000
Si       2.49092019      -2.87559225      -0.09069869       0.00000000
Si       2.61143361      -0.04823469      -2.77602041       0.00000000
Si      -0.11466531       2.67032196      -2.78125435       0.00000000
