10
Lattice="16.28999089631971 0.0 0.0 0.0 16.28999089631971 0.0 0.0 0.0 34.433804113860816" Properties=species:S:1:pos:R:3:initial_magmoms:R:1 pbc="T T T"
Si       0.33027975      -2.32251417      -0.15274844       0.00000000
Si       1.91252812       1.36440153      -0.15278287       0.00000000
Si      -1.19777112       0.92113434       1.81166675       0.00000000
Si      -0.31659615       0.89124219      -2.18393081       0.00000000
Si      -0.61677198       3.16472346       1.41650419       0.00000000
Si       1.71436190       2.19906855      -2.34280847       0.00000000
Si       0.45263394      -2.66103666      -2.51187855       0.00000000
Si      -3.44624724       0.22807629       1.46739738       0.00000000
Si       1.79460807       3.03083595       1.42673104       0.00000000
Si       2.34444770      -2.85539265       0.99214175       0.00000000
