10
Lattice="16.28999089631971 0.0 0.0 0.0 16.28999089631971 0.0 0.0 0.0 34.433804113860816" Properties=species:S:1:pos:R:3:initial_magmoms:R:1 pbc="T T T"
Si      -1.69075539      -1.62438993      -0.23797215       0.00000000
Si       1.85315040      -0.29126520      -1.49873216       0.00000000
Si       0.56130453      -0.36530325       2.30710060       0.00000000
Si      -1.42522839       1.93305285      -0.41392899       0.00000000
Si       1.67511699      -2.53392579       1.63374718       0.00000000
Si      -1.26587961       2.77793370       1.76828013       0.00000000
Si      -1.55523888       0.85494807       3.12776191       0.00000000
Si       3.35166165       1.43050635      -0.69728492       0.00000000
Si      -3.69499554      -0.57541167       0.39464605       0.00000000
Si      -1.72898802      -2.30267295      -2.45637122       0.00000000
