10
Lattice="16.28999089631971 0.0 0.0 0.0 16.28999089631971 0.0 0.0 0.0 34.433804113860816" Properties=species:S:1:pos:R:3:initial_magmoms:R:1 pbc="T T T"
Si       1.34739870       0.93910451       1.61549726       0.00000000
Si      -1.24756965      -1.57133340       1.17990939       0.00000000
Si       1.57539354      -1.10765484      -1.37270437       0.00000000
Si      -1.31574330       1.52946877      -1.31588856       0.00000000
Si       0.62988543      -0.64246131      -3.41903762       0.00000000
Si      -1.62517185      -3.10208841      -0.62790077       0.00000000
Si      -3.16993626      -0.31785048       1.74920379       0.00000000
Si       1.96816824       3.03599078       0.72173294       0.00000000
Si       0.28997829       2.59764317      -2.65619070       0.00000000
Si       3.42014156       0.41822946      -1.75137312       0.00000000
