10
Lattice="16.28999089631971 0.0 0.0 0.0 16.28999089631971 0.0 0.0 0.0 34.433804113860816" Properties=species:S:1:pos:R:3:initial_magmoms:R:1 pbc="T T T"
Si       1.44159888       1.81296297       0.29819691       0.00000000
Si       1.28882637      -1.96863021      -0.24571976       0.00000000
Si      -1.12370049       0.56860245      -2.04805495       0.00000000
Si      -1.00040148      -0.20645946       2.20827553       0.00000000
Si       0.26823114       3.19592437       1.80812006       0.00000000
Si      -3.37017294       0.34507107      -1.49239634       0.00000000
Si       2.18312457      -2.33761500       1.92195828       0.00000000
Si      -3.48806367      -1.46608371       0.03763617       0.00000000
Si       1.75435385       2.83162295      -1.83539165       0.00000000
Si      -0.55931715      -1.07390196      -3.62977262       0.00000000
