10
Lattice="16.28999089631971 0.0 0.0 0.0 16.28999089631971 0.0 0.0 0.0 34.433804113860816" Properties=species:S:1:pos:R:3:initial_magmoms:R:1 pbc="T T T"
Si       1.05741648       0.50565789      -2.04357855       0.00000000
Si      -2.25613568      -0.60196437      -0.41306814       0.00000000
Si       0.44595504       2.15495523       0.96528337       0.00000000
Si       0.24783606      -2.45786778       0.72879187       0.00000000
Si      -1.55341277       3.16860048      -0.18377332       0.00000000
Si       2.70306486      -1.17644751      -2.02618947       0.00000000
Si      -0.73272420      -0.00330687      -3.50243634       0.00000000
Si      -3.25383695       1.50021126      -0.74776491       0.00000000
Si      -2.17848776      -1.63108512      -2.50234038       0.00000000
Si       2.26302309      -2.89826793      -0.49922157       0.00000000
