10
Lattice="16.28999089631971 0.0 0.0 0.0 16.28999089631971 0.0 0.0 0.0 34.433804113860816" Properties=species:S:1:pos:R:3:initial_magmoms:R:1 pbc="T T T"
Si      -1.35588186       1.25535627       1.37882326       0.00000000
Si      -1.83166389      -0.91224000      -1.10886449       0.00000000
Si       0.81474435       1.74474045      -1.36587313       0.00000000
Si       1.35031068      -1.45689615       1.34509533       0.00000000
Si       1.38166893      -0.09640422      -2.84704503       0.00000000
Si      -0.82365498      -1.17993357      -3.16783052       0.00000000
Si       2.60276733       2.54598039      -0.00207980       0.00000000
Si      -2.72001135       2.56385052       0.03894810       0.00000000
Si       0.00457749       2.60895753       2.71007275       0.00000000
Si      -2.70514346      -0.10702530       2.70480437       0.00000000
