10
Lattice="16.28999089631971 0.0 0.0 0.0 16.28999089631971 0.0 0.0 0.0 34.433804113860816" Properties=species:S:1:pos:R:3:initial_magmoms:R:1 pbc="T T T"
Si      -1.54821856      -0.94053573       1.41719287       0.00000000
Si       1.06389013      -1.14349284      -1.69128610       0.00000000
Si       1.69416652       0.52611813       1.57941061       0.00000000
Si      -1.63159078       1.65377709      -1.19444046       0.00000000
Si      -1.55708032       0.76277925       3.04105754       0.00000000
Si       0.47387773       2.07060561       2.88217988       0.00000000
Si       2.26882885       0.68085684      -2.76517375       0.00000000
Si      -0.68769931      -2.20538907      -2.85938469       0.00000000
Si      -3.45251956      -1.34320824       0.08171146       0.00000000
Si       1.95371509      -1.40460525       2.96282390       0.00000000
