10
Lattice="16.28999089631971 0.0 0.0 0.0 16.28999089631971 0.0 0.0 0.0 34.433804113860816" Properties=species:S:1:pos:R:3:initial_magmoms:R:1 pbc="T T T"
Si       0.64791846       1.43426934       1.76270185       0.00000000
Si      -0.25954857       1.93072338      -1.38341329       0.00000000
Si       1.76827950      -1.49239206      -0.66016526       0.00000000
Si      -2.74156532      -1.38489435      -0.24971409       0.00000000
Si       0.58376844      -3.46068018      -0.00010330       0.00000000
Si      -1.28167114       2.64054384       2.10938159       0.00000000
Si      -2.86391951      -1.04637186       2.10941602       0.00000000
Si      -0.84975156      -1.57925034       3.25430621       0.00000000
Si       0.71223138       0.17614377       3.69808933       0.00000000
Si      -1.47983736       3.47521086      -0.08064401       0.00000000
