10
Lattice="16.28999089631971 0.0 0.0 0.0 16.28999089631971 0.0 0.0 0.0 34.433804113860816" Properties=species:S:1:pos:R:3:initial_magmoms:R:1 pbc="T T T"
Si      -2.01066818      -1.02726369       0.60083578       0.00000000
Si      -0.38390643       2.32876953      -0.18418652       0.00000000
Si       0.46718091      -1.02912075      -2.08379725       0.00000000
Si       1.75143564      -0.73002006       1.53550748       0.00000000
Si      -2.20787818       2.34087300       1.28083493       0.00000000
Si       2.61511515      -1.73154555      -1.60613126       0.00000000
Si       2.11036950      -2.83362921       0.44078737       0.00000000
Si      -1.70926898      -1.61850924       2.82150749       0.00000000
Si      -1.90263453      -3.16868193      -0.33862222       0.00000000
Si       1.80713115       3.27028266      -0.01198297       0.00000000
