10
Lattice="16.28999089631971 0.0 0.0 0.0 16.28999089631971 0.0 0.0 0.0 34.433804113860816" Properties=species:S:1:pos:R:3:initial_magmoms:R:1 pbc="T T T"
Si      -2.17515387      -0.00504990       0.79035955       0.00000000
Si      -0.30139921       0.59124555      -2.22067170       0.00000000
Si       1.09956686       1.49297850       1.40538207       0.00000000
Si       1.00093091      -2.14537671       0.18942046       0.00000000
Si      -1.52018184      -0.64185858       2.94409190       0.00000000
Si       3.27255512       0.68434290       1.09595973       0.00000000
Si      -0.19336556      -1.55017269      -3.16012970       0.00000000
Si       1.74504182      -2.37167739      -2.04991437       0.00000000
Si       2.79107159      -1.63641195       1.64827826       0.00000000
Si       0.18024233       1.02653064       3.50808349       0.00000000
