10
Lattice="16.28999089631971 0.0 0.0 0.0 16.28999089631971 0.0 0.0 0.0 34.433804113860816" Properties=species:S:1:pos:R:3:initial_magmoms:R:1 pbc="T T T"
Si       1.35580041      -1.35195597      -1.35820773       0.00000000
Si      -1.34279285      -1.35738054       1.36898552       0.00000000
Si      -1.35907796       1.36554183      -1.35789782       0.00000000
Si       1.35042471       1.38036573       1.35824216       0.00000000
Si       2.70689301      -2.71024875       0.00020660       0.00000000
Si      -2.71142882      -2.71195920       0.00179056       0.00000000
Si      -0.00232947      -2.70977634      -2.71655319       0.00000000
Si       2.71259451       0.00522909      -2.71651876       0.00000000
Si      -2.71713193       0.00491958      -2.71631216       0.00000000
Si       2.70503595       2.72932434      -0.00688676       0.00000000
