10
Lattice="16.28999089631971 0.0 0.0 0.0 16.28999089631971 0.0 0.0 0.0 34.433804113860816" Properties=species:S:1:pos:R:3:initial_magmoms:R:1 pbc="T T T"
Si      -1.45829709       0.64180971       1.72761379       0.00000000
Si       0.99691542       2.18935875       0.24234525       0.00000000
Si       0.96358608      -2.15521587       0.72004568       0.00000000
Si      -1.22621346       1.54173447      -2.23299901       0.00000000
Si      -2.42553702      -2.11711356      -1.05505235       0.00000000
Si      -0.75030111       3.41073897      -0.81246606       0.00000000
Si      -3.07096148       0.01585017      -1.85433026       0.00000000
Si       2.14220016       2.41488240      -1.82158369       0.00000000
Si      -2.34529085      -1.28534616       2.71448716       0.00000000
Si       2.52636723      -2.74022235      -0.94975372       0.00000000
