10
Lattice="16.28999089631971 0.0 0.0 0.0 16.28999089631971 0.0 0.0 0.0 34.433804113860816" Properties=species:S:1:pos:R:3:initial_magmoms:R:1 pbc="T T T"
Si      -1.78369310      -1.60327809      -0.54119640       0.00000000
Si      -0.34516881       2.00015136      -1.43334233       0.00000000
Si      -1.20120831       1.50690645       1.62541420       0.00000000
Si       2.57618205      -0.05980059      -0.07069264       0.00000000
Si      -1.07981523      -3.70069704       0.23718018       0.00000000
Si       3.04129413      -0.78258789      -2.36481169       0.00000000
Si       3.23147988       2.30560515       0.40852288       0.00000000
Si      -2.67799129      -1.23429330      -2.70887445       0.00000000
Si       0.25554123       3.05936693       2.68277361       0.00000000
Si      -3.78627560      -1.33843527       0.74903896       0.00000000
