10
Lattice="10.86 0.0 0.0 0.0 10.86 0.0 0.0 0.0 10.86" Properties=species:S:1:pos:R:3:initial_magmoms:R:1 pbc="T T T"
Si      -1.09804374      -1.19120082       1.48926438       0.00000000
Si       1.61695626      -1.19120082      -1.22573562       0.00000000
Si      -1.63814412      -0.12256596      -1.93380762       0.00000000
Si       1.61695626       1.52379918       1.48926438       0.00000000
Si      -2.21280102       2.70361872       0.15609078       0.00000000
Si      -2.45554374      -2.54870082       0.13176438       0.00000000
Si       0.25945626      -2.54870082      -2.58323562       0.00000000
Si      -2.45554374       0.16629918       2.84676438       0.00000000
Si       0.25945626      -2.54870082       2.84676438       0.00000000
Si       2.97445626      -2.54870082       0.13176438       0.00000000
