10
Lattice="10.86 0.0 0.0 0.0 10.86 0.0 0.0 0.0 10.86" Properties=species:S:1:pos:R:3:initial_magmoms:R:1 pbc="T T T"
Si      -1.13533698       1.18032996      -1.53034776       0.00000000
Si       1.57966302       1.18032996       1.18465224       0.00000000
Si      -0.88813080      -1.87488126       1.51946604       0.00000000
Si       1.57966302      -1.53467004      -1.53034776       0.00000000
Si      -2.49283698       2.53782996      -0.17284776       0.00000000
Si       0.22216302       2.53782996       2.54215224       0.00000000
Si      -2.48539788      -0.16254162       2.66050452       0.00000000
Si      -2.49283698      -0.17717004      -2.88784776       0.00000000
Si      -2.37875268      -2.98211256      -0.35221152       0.00000000
Si       0.22216302       2.53782996      -2.88784776       0.00000000
