10
Lattice="16.28999089631971 0.0 0.0 0.0 16.28999089631971 0.0 0.0 0.0 34.385447050020396" Properties=species:S:1:pos:R:3:initial_magmoms:R:1 pbc="T T T"
Si       1.10747565      -1.41816988       1.54447823       0.00000000
Si      -1.05155208      -1.49893805      -1.61854938       0.00000000
Si       1.64846655       1.21763840      -1.40150832       0.00000000
Si      -1.59655032       1.29529283       1.52552153       0.00000000
Si       2.55480957      -2.80360415       0.25552872       0.00000000
Si       2.45503332      -0.05690423       2.91264499       0.00000000
Si       2.68209963       2.79815936       0.08446102       0.00000000
Si      -0.25770780       2.65674587       2.90858750       0.00000000
Si      -0.26339301      -2.76975353       2.90924083       0.00000000
Si      -3.24804681       2.42630753       0.22745986       0.00000000
