10
Lattice="16.28999089631971 0.0 0.0 0.0 16.28999089631971 0.0 0.0 0.0 34.385447050020396" Properties=species:S:1:pos:R:3:initial_magmoms:R:1 pbc="T T T"
Si      -1.21502223       1.34358291      -1.44939210       0.00000000
Si      -1.35998694      -1.34557029       1.35329848       0.00000000
Si       1.35430173       1.36806678       1.34955046       0.00000000
Si       1.11951396      -1.48155921      -1.46774707       0.00000000
Si       0.60699798       2.19571281      -2.73838086       0.00000000
Si       2.23472736       0.26722116      -2.82661397       0.00000000
Si      -2.20112109      -0.30964032      -2.87691991       0.00000000
Si      -0.00504990      -2.70181053       2.70657289       0.00000000
Si      -0.73560753      -2.32893243      -2.94369648       0.00000000
Si       2.71120986      -2.70330921      -0.04202936       0.00000000
