10
Lattice="16.28999089631971 0.0 0.0 0.0 16.28999089631971 0.0 0.0 0.0 34.385447050020396" Properties=species:S:1:pos:R:3:initial_magmoms:R:1 pbc="T T T"
Si      -1.17315693      -1.42794882       1.35702243       0.00000000
Si      -0.52580862       2.17306971       0.59727555       0.00000000
Si       2.29651533      -0.18036288       0.35069737       0.00000000
Si      -0.73534689       1.02009609      -1.96794901       0.00000000
Si       2.24251398       1.36436895       2.18323641       0.00000000
Si      -1.55292570      -0.83634489      -3.12171894       0.00000000
Si      -3.29131305      -1.59044157       0.22838827       0.00000000
Si       2.68278381      -2.03763465      -1.56814919       0.00000000
Si       1.18052001       1.98816192      -2.95763150       0.00000000
Si       1.47082410       3.34236591       1.00917905       0.00000000
