10
Lattice="16.28999089631971 0.0 0.0 0.0 16.28999089631971 0.0 0.0 0.0 34.385447050020396" Properties=species:S:1:pos:R:3:initial_magmoms:R:1 pbc="T T T"
Si      -1.72364490       1.13863842       1.02021678       0.00000000
Si       1.47294180      -1.11975831       1.37335552       0.00000000
Si       1.15176816       1.67433507      -1.16236630       0.00000000
Si      -1.20021462      -1.32041853      -1.52588945       0.00000000
Si       1.95875847      -2.53635300      -0.45660461       0.00000000
Si      -0.41441760       2.95640694       1.79646869       0.00000000
Si      -2.92765509       1.63136205      -1.00704715       0.00000000
Si      -0.04328253       3.61382247      -0.53239017       0.00000000
Si       0.38424852      -2.89056276      -2.20747816       0.00000000
Si       0.41212071      -1.22303691       3.47767729       0.00000000
