10
Lattice="16.28999089631971 0.0 0.0 0.0 16.28999089631971 0.0 0.0 0.0 34.385447050020396" Properties=species:S:1:pos:R:3:initial_magmoms:R:1 pbc="T T T"
Si       1.36094805       1.34908893      -1.35524470       0.00000000
Si       1.35606105      -1.35412254       1.35812276       0.00000000
Si      -1.36042677       1.35479043       1.35616279       0.00000000
Si      -1.35430173      -1.36806678      -1.34955046       0.00000000
Si      -2.56932396      -0.02448387      -2.79894257       0.00000000
Si       2.71171485      -2.71482624      -0.00577676       0.00000000
Si       2.71430496       2.71349046       0.00223506       0.00000000
Si       2.71280628       0.00092853       2.71504203       0.00000000
Si      -2.71428867      -2.71363707       0.00374802       0.00000000
Si      -0.00239463      -2.71401174       2.71480133       0.00000000
