10
Lattice="16.28999089631971 0.0 0.0 0.0 16.28999089631971 0.0 0.0 0.0 34.385447050020396" Properties=species:S:1:pos:R:3:initial_magmoms:R:1 pbc="T T T"
Si      -1.35726651       1.35599589      -1.35698804       0.00000000
Si       1.35716877      -1.35746199      -1.35729751       0.00000000
Si      -1.35783666      -1.35778779       1.35726312       0.00000000
Si       1.35788553       1.35791811       1.35798522       0.00000000
Si      -0.00086337       2.71134018      -2.71593605       0.00000000
Si       0.00008145       2.71471221       2.71284136       0.00000000
Si       0.00021177      -2.71332756      -2.71507642       0.00000000
Si       2.71261080      -0.00052128       2.71627991       0.00000000
Si      -2.71469592       2.71459818      -0.00003439       0.00000000
Si      -2.71622718      -0.00014661      -2.71311644       0.00000000
