10
Lattice="16.28999089631971 0.0 0.0 0.0 16.28999089631971 0.0 0.0 0.0 34.385447050020396" Properties=species:S:1:pos:R:3:initial_magmoms:R:1 pbc="T T T"
Si      -1.35322659      -1.35469269       1.33212735       0.00000000
Si       1.35780408      -1.35679410      -1.35485614       0.00000000
Si      -1.35723393       1.35671265      -1.35564701       0.00000000
Si       1.35386190       1.36172997       1.37204887       0.00000000
Si      -0.15501564       2.55441861       2.79828924       0.00000000
Si      -0.00935046      -2.59214625       2.77827690       0.00000000
Si      -2.71290402      -2.71262709       0.00409187       0.00000000
Si       2.71438641       0.00045612      -2.71308206       0.00000000
Si      -0.00008145      -2.71471221      -2.71284136       0.00000000
Si      -2.71477737      -0.00011403      -2.71287575       0.00000000
