10
Lattice="16.28999089631971 0.0 0.0 0.0 16.28999089631971 0.0 0.0 0.0 34.385447050020396" Properties=species:S:1:pos:R:3:initial_magmoms:R:1 pbc="T T T"
Si      -1.34387613       1.23745356      -1.44614955       0.00000000
Si      -1.91586690      -0.96806583       0.98968249       0.00000000
Si       0.83188143       1.72739160       1.43775950       0.00000000
Si       1.37549502      -1.47194811      -1.38745356       0.00000000
Si      -1.03213440       3.24206838       1.25768281       0.00000000
Si       2.63425590       2.59975368       0.08118409       0.00000000
Si      -2.77992108       2.47259394      -0.14342178       0.00000000
Si      -1.18052001      -1.98816192       2.95763150       0.00000000
Si       0.00935046       2.59214625      -2.77827690       0.00000000
Si      -2.70355356      -0.12048084      -2.77418503       0.00000000
