10
Lattice="16.28999089631971 0.0 0.0 0.0 16.28999089631971 0.0 0.0 0.0 34.385447050020396" Properties=species:S:1:pos:R:3:initial_magmoms:R:1 pbc="T T T"
Si      -2.23793649       0.06836913      -0.62079521       0.00000000
Si       1.23681825       1.95936120      -0.28474605       0.00000000
Si       0.28828413      -0.52294158       2.34608598       0.00000000
Si       0.76066155      -1.49271786      -1.85743412       0.00000000
Si       3.37466898       0.88036047      -0.44804263       0.00000000
Si      -2.24987706       0.67259781      -2.86654440       0.00000000
Si      -1.23597117      -2.66201406      -2.26933762       0.00000000
Si      -2.91328731      -2.25704466      -0.71728083       0.00000000
Si       1.53235143      -3.47071482      -0.68337676       0.00000000
Si       0.93325410       3.42770922       1.56474503       0.00000000
