10
Lattice="16.28999089631971 0.0 0.0 0.0 16.28999089631971 0.0 0.0 0.0 34.385447050020396" Properties=species:S:1:pos:R:3:initial_magmoms:R:1 pbc="T T T"
Si       0.92963772      -1.60085088      -1.49470183       0.00000000
Si       1.81244169       1.56564819       0.02475754       0.00000000
Si      -2.00992536       0.63904041      -1.14128801       0.00000000
Si      -0.93967236      -0.37895427       2.18440552       0.00000000
Si      -2.42906706       2.59406847       0.19854168       0.00000000
Si       3.06799344      -1.78103457      -0.49920820       0.00000000
Si       1.57460769       2.34979992      -2.27604278       0.00000000
Si      -2.57706171       1.40460525       2.19031982       0.00000000
Si      -3.65270344      -0.88888014      -0.34089751       0.00000000
Si       0.18362088      -3.76349499      -0.97386518       0.00000000
