10
Lattice="16.28999089631971 0.0 0.0 0.0 16.28999089631971 0.0 0.0 0.0 34.385447050020396" Properties=species:S:1:pos:R:3:initial_magmoms:R:1 pbc="T T T"
Si       1.35799956       1.35583299       1.35771014       0.00000000
Si       1.35757602      -1.35755973      -1.35736628       0.00000000
Si      -1.35738054      -1.35824391       1.35740067       0.00000000
Si      -1.35725022       1.35840681      -1.35826030       0.00000000
Si      -2.71340901       0.00226431       2.71418239       0.00000000
Si      -0.00014661      -2.71495656       2.71304767       0.00000000
Si       2.71423980      -2.71450044      -0.00003439       0.00000000
Si      -0.00076563       2.71675493      -2.71205050       0.00000000
Si       2.71425609       0.00229689       2.71459502       0.00000000
Si       2.71485882       2.71495702       0.00044701       0.00000000
