10
Lattice="16.28999089631971 0.0 0.0 0.0 16.28999089631971 0.0 0.0 0.0 34.385447050020396" Properties=species:S:1:pos:R:3:initial_magmoms:R:1 pbc="T T T"
Si       1.44246321       1.77073980      -0.56199606       0.00000000
Si       0.30356415      -1.46834802      -1.84949107       0.00000000
Si      -2.00435418       1.33682256      -0.11966142       0.00000000
Si       0.23783400      -0.78415173       2.30080032       0.00000000
Si       3.27575610       0.78014439       0.50787334       0.00000000
Si      -2.17543176       1.62593748       2.22724981       0.00000000
Si      -0.20738799       1.23962013       3.34230171       0.00000000
Si      -1.57460769      -2.34979992       2.27604278       0.00000000
Si       3.36953763      -1.48219452      -0.15827630       0.00000000
Si       0.62737677       3.71331269       0.41754272       0.00000000
