10
Lattice="16.28999089631971 0.0 0.0 0.0 16.28999089631971 0.0 0.0 0.0 34.385447050020396" Properties=species:S:1:pos:R:3:initial_magmoms:R:1 pbc="T T T"
Si      -0.56329191       1.96620300      -1.17312895       0.00000000
Si      -0.40509972       0.47530962       2.27638664       0.00000000
Si      -1.26514656      -1.96082730      -0.36854343       0.00000000
Si       2.36056761      -0.43802181       0.24987918       0.00000000
Si       0.67898349       2.61635060       2.36840215       0.00000000
Si       0.64008297       3.54853934       0.12303120       0.00000000
Si       2.41851114      -2.18704653       1.81369580       0.00000000
Si       0.77714703      -1.22134275       3.48139092       0.00000000
Si      -3.01990536      -2.15280495       1.25716703       0.00000000
Si      -0.19355778       1.84379994      -3.49562650       0.00000000
