10
Lattice="16.28999089631971 0.0 0.0 0.0 16.28999089631971 0.0 0.0 0.0 34.385447050020396" Properties=species:S:1:pos:R:3:initial_magmoms:R:1 pbc="T T T"
Si       0.40509972      -0.47530962      -2.27638664       0.00000000
Si       1.18224675      -1.69665237       1.20500428       0.00000000
Si       1.08408321       2.14104098       0.09201551       0.00000000
Si      -2.15287011       0.49963059       1.07719350       0.00000000
Si       2.03900301      -0.06050106       2.76930230       0.00000000
Si       2.76566733      -0.91333143      -2.02650745       0.00000000
Si       3.13211088       1.39743765       1.20617339       0.00000000
Si      -3.56140125      -0.48627279      -0.65800028       0.00000000
Si      -0.86004684      -2.43613692      -2.64493007       0.00000000
Si      -0.15819219       1.49089338      -3.44951559       0.00000000
