10
Lattice="16.28999089631971 0.0 0.0 0.0 16.28999089631971 0.0 0.0 0.0 34.385447050020396" Properties=species:S:1:pos:R:3:initial_magmoms:R:1 pbc="T T T"
Si       1.35715248       1.35795069       1.35664419       0.00000000
Si       1.35747828      -1.35688858      -1.35819153       0.00000000
Si      -1.35769005      -1.35791648       1.35750382       0.00000000
Si      -1.35526284       1.35676152      -1.36224902       0.00000000
Si      -2.71586880      -2.71257894       0.00202874       0.00000000
Si      -0.00024435      -2.71437685       2.71452625       0.00000000
Si       2.71500543      -2.71402240       0.00044701       0.00000000
Si       2.71503801       0.00068418       2.71442309       0.00000000
Si       2.71464705       2.71508688      -0.00137542       0.00000000
Si      -2.71505430       0.00071676       2.71500765       0.00000000
