10
Lattice="16.28999089631971 0.0 0.0 0.0 16.28999089631971 0.0 0.0 0.0 34.385447050020396" Properties=species:S:1:pos:R:3:initial_magmoms:R:1 pbc="T T T"
Si       1.35726651       1.35779105      -1.35812276       0.00000000
Si      -1.35801585      -1.35726998      -1.35801960       0.00000000
Si       1.35860229      -1.35613014       1.35887924       0.00000000
Si      -1.36111095       1.35793766       1.36193955       0.00000000
Si       2.71391400      -2.71426002      -0.00106595       0.00000000
Si       2.71422351       0.00015801      -2.71555781       0.00000000
Si      -0.00040725      -2.71435776      -2.71600482       0.00000000
Si      -2.71546155      -0.00080961      -2.71504203       0.00000000
Si      -0.00061902       2.71505756      -2.71590167       0.00000000
Si      -2.71487511      -2.71639401      -0.00075648       0.00000000
