10
Lattice="16.28999089631971 0.0 0.0 0.0 16.28999089631971 0.0 0.0 0.0 34.385447050020396" Properties=species:S:1:pos:R:3:initial_magmoms:R:1 pbc="T T T"
Si      -0.27399780       1.98580313       1.24692016       0.00000000
Si      -1.48526844      -1.74428826       0.58004843       0.00000000
Si       0.15783381       1.16020964      -2.07629761       0.00000000
Si       2.20564971      -0.90128076      -0.08751101       0.00000000
Si       0.60734007      -0.63736647      -3.52506046       0.00000000
Si       2.02584069       2.66955959       1.48727457       0.00000000
Si       2.57538384      -1.02368382      -2.41000856       0.00000000
Si       3.40902459       0.68105558       1.20864914       0.00000000
Si      -1.36889757      -3.20849862      -1.28594767       0.00000000
Si      -1.88218732       3.37626866       0.07654205       0.00000000
