10
Lattice="16.28999089631971 0.0 0.0 0.0 16.28999089631971 0.0 0.0 0.0 34.385447050020396" Properties=species:S:1:pos:R:3:initial_magmoms:R:1 pbc="T T T"
Si       1.86900057       0.87531057      -1.16911170       0.00000000
Si       1.12616028      -1.49545458       1.45928824       0.00000000
Si      -1.03363308      -1.58052096      -1.48596934       0.00000000
Si      -1.58340429       1.21798701       1.43698239       0.00000000
Si      -0.57322881      -0.59601852      -3.49521529       0.00000000
Si       2.50856226      -2.79496652       0.04931907       0.00000000
Si       2.48627754      -0.14261895       2.82433280       0.00000000
Si       1.36897902       0.63268731      -3.45986703       0.00000000
Si       3.45693348      -0.93581163      -1.31146310       0.00000000
Si      -0.22859757       2.57453676       2.82278545       0.00000000
