10
Lattice="16.28999089631971 0.0 0.0 0.0 16.28999089631971 0.0 0.0 0.0 34.385447050020396" Properties=species:S:1:pos:R:3:initial_magmoms:R:1 pbc="T T T"
Si      -1.35747828      -1.35726651      -1.35729751       0.00000000
Si       1.35767376       1.35731538      -1.35740067       0.00000000
Si      -1.35997065       1.35739683       1.35898240       0.00000000
Si       1.36111095      -1.35935163       1.35911994       0.00000000
Si      -2.71430496      -2.71339272      -0.00061894       0.00000000
Si       2.71410948       2.71370223       0.00061894       0.00000000
Si       2.71586880      -2.71311579      -0.00058455       0.00000000
Si      -0.00021177       2.71539639      -2.71435432       0.00000000
Si       2.71515204       0.00039096      -2.71480133       0.00000000
Si      -2.71541268       0.00045612      -2.71459502       0.00000000
