10
Lattice="16.28999089631971 0.0 0.0 0.0 16.28999089631971 0.0 0.0 0.0 34.385447050020396" Properties=species:S:1:pos:R:3:initial_magmoms:R:1 pbc="T T T"
Si       1.15702983      -1.50384393      -1.43198274       0.00000000
Si      -1.43338968      -1.32791193       1.35605963       0.00000000
Si      -1.56015846       1.22593653      -1.42087624       0.00000000
Si       1.47064491       1.31471703       1.57757081       0.00000000
Si       2.62257597       2.62024650       0.01059072       0.00000000
Si       2.50730793      -0.14195106      -2.80812349       0.00000000
Si      -1.81965816       0.52935984       3.27490619       0.00000000
Si      -0.21377367       2.57479740      -2.80826103       0.00000000
Si       2.53317645      -2.91369456       0.05584200       0.00000000
Si       3.09703851      -0.06489936       2.44738556       0.00000000
