10
Lattice="16.28999089631971 0.0 0.0 0.0 16.28999089631971 0.0 0.0 0.0 34.385447050020396" Properties=species:S:1:pos:R:3:initial_magmoms:R:1 pbc="T T T"
Si       1.67795145       0.29038554      -1.64328143       0.00000000
Si       0.89029737      -0.86363064       2.03441611       0.00000000
Si      -1.14842871      -2.02921272      -0.55219620       0.00000000
Si      -1.75951548       1.68650370       0.18451241       0.00000000
Si      -2.49916293      -2.27271564       1.38721287       0.00000000
Si      -1.73164329       2.29218219       2.43232473       0.00000000
Si      -0.92465298      -1.91850588       3.13808642       0.00000000
Si       0.61634844       2.79671607       2.50807591       0.00000000
Si       1.14971562      -0.67491099      -3.62271518       0.00000000
Si       1.75542669       0.89204040       3.33177975       0.00000000
