10
Lattice="16.28999089631971 0.0 0.0 0.0 16.28999089631971 0.0 0.0 0.0 34.385447050020396" Properties=species:S:1:pos:R:3:initial_magmoms:R:1 pbc="T T T"
Si      -1.30587156       1.35501849       1.43805865       0.00000000
Si       0.95954616       1.67708808      -1.39517108       0.00000000
Si       1.41468876      -1.34995230       1.40523773       0.00000000
Si      -1.78639398      -1.09491606      -1.38286108       0.00000000
Si      -2.54923839       2.74305681       0.04336695       0.00000000
Si      -3.41412336       0.83357559      -1.29462797       0.00000000
Si       1.36430379       0.45747207      -3.50031809       0.00000000
Si      -2.66681961       0.00592956       2.79330335       0.00000000
Si      -0.69178743       3.62261907      -1.14902199       0.00000000
Si       2.73038319       2.73997800      -0.11982303       0.00000000
