10
Lattice="16.28999089631971 0.0 0.0 0.0 16.28999089631971 0.0 0.0 0.0 34.385447050020396" Properties=species:S:1:pos:R:3:initial_magmoms:R:1 pbc="T T T"
Si      -1.35666378       1.35694071      -1.35733190       0.00000000
Si      -1.35658233      -1.35725022       1.35822592       0.00000000
Si       1.35790182      -1.35769005      -1.35681611       0.00000000
Si       1.35687555       1.35817875       1.35781329       0.00000000
Si       0.00115659      -2.71274112      -2.71373538       0.00000000
Si      -2.71438641      -0.00045612       2.71308206       0.00000000
Si       0.00273672       2.71384884      -2.71383854       0.00000000
Si      -2.71423980       2.71450044       0.00003439       0.00000000
Si       2.71564074       0.00250866      -2.71397608       0.00000000
Si      -2.71446786      -2.71516833       0.00024070       0.00000000
