10
Lattice="16.28999089631971 0.0 0.0 0.0 16.28999089631971 0.0 0.0 0.0 34.385447050020396" Properties=species:S:1:pos:R:3:initial_magmoms:R:1 pbc="T T T"
Si      -1.12466160       1.74386079      -1.16439504       0.00000000
Si       0.49640517      -1.63253493      -1.66597584       0.00000000
Si       1.99796850       1.03602771       0.79289447       0.00000000
Si      -1.88770149      -0.73723653       1.28966130       0.00000000
Si      -1.57565025      -2.62845666      -2.15050145       0.00000000
Si       0.32751045       2.30531193      -2.98630897       0.00000000
Si      -2.63647134      -2.73173526      -0.04617968       0.00000000
Si       1.47299067      -3.48765642      -0.55058009       0.00000000
Si      -2.99200059       1.29696093       2.05745437       0.00000000
Si       3.37646088       1.91101248      -0.94178354       0.00000000
