10
Lattice="16.28999089631971 0.0 0.0 0.0 16.28999089631971 0.0 0.0 0.0 34.385447050020396" Properties=species:S:1:pos:R:3:initial_magmoms:R:1 pbc="T T T"
Si       1.28953269      -1.35783666       1.31501714       0.00000000
Si      -0.83799018      -1.78217487      -1.28483083       0.00000000
Si       1.63872513       1.06360668      -1.33017219       0.00000000
Si      -1.44733392       1.38543427       1.28894952       0.00000000
Si      -2.09888505      -0.54758835      -2.89212860       0.00000000
Si       2.58418044      -2.66481594      -0.25563187       0.00000000
Si       2.61607626       0.02951748       2.65660049       0.00000000
Si       3.34179576      -0.73754604      -1.58620297       0.00000000
Si      -0.09871740      -2.68537392       2.65972957       0.00000000
Si      -2.69544114      -2.66173713      -0.09244189       0.00000000
