10
Lattice="16.28999089631971 0.0 0.0 0.0 16.28999089631971 0.0 0.0 0.0 34.385447050020396" Properties=species:S:1:pos:R:3:initial_magmoms:R:1 pbc="T T T"
Si      -1.28953269       1.35783666      -1.31501714       0.00000000
Si       1.32654357       1.38735414       1.34158335       0.00000000
Si      -1.38825009      -1.32753726       1.34471243       0.00000000
Si       1.29464775      -1.30697928      -1.57064901       0.00000000
Si      -2.12752287      -0.42433821      -2.59984797       0.00000000
Si       0.34919244       2.42144334      -2.64518933       0.00000000
Si       2.05226307       0.62029062      -2.90122011       0.00000000
Si      -0.47618928      -2.36986920      -2.84599706       0.00000000
Si       2.67810858      -2.66600511      -0.03364962       0.00000000
Si      -0.03200985      -2.67990048       2.70035944       0.00000000
