10
Lattice="16.28999089631971 0.0 0.0 0.0 16.28999089631971 0.0 0.0 0.0 34.385447050020396" Properties=species:S:1:pos:R:3:initial_magmoms:R:1 pbc="T T T"
Si      -1.35549090      -1.35852084      -1.35633472       0.00000000
Si       1.35764118       1.35744223      -1.35609402       0.00000000
Si       1.35682668      -1.35713619       1.35757259       0.00000000
Si      -1.35760860       1.35708778       1.35798522       0.00000000
Si      -2.71505430       2.71354815       0.00096279       0.00000000
Si       2.71472850      -2.71415835       0.00116911       0.00000000
Si       2.71463076       2.71451577       0.00044701       0.00000000
Si       2.71432125       0.00009774       2.71493887       0.00000000
Si       0.00011403       2.71457604      -2.71473256       0.00000000
Si      -0.00135207      -2.71419093       2.71531711       0.00000000
