10
Lattice="16.28999089631971 0.0 0.0 0.0 16.28999089631971 0.0 0.0 0.0 34.385447050020396" Properties=species:S:1:pos:R:3:initial_magmoms:R:1 pbc="T T T"
Si      -1.35685926       1.35861858       1.35681611       0.00000000
Si      -1.35687555      -1.35817875      -1.35781329       0.00000000
Si       1.35817875       1.35705474      -1.35774452       0.00000000
Si       1.35904212      -1.35992178       1.36310865       0.00000000
Si      -0.00213399       2.69399133       2.72718010       0.00000000
Si      -2.71311579       2.71215468      -0.00006877       0.00000000
Si      -2.71353933      -0.00123804      -2.71514519       0.00000000
Si      -2.71345788      -2.71542897       0.00041263       0.00000000
Si       0.00135207       2.71419093      -2.71531711       0.00000000
Si       2.71567332       2.71428867      -0.00037824       0.00000000
