10
Lattice="16.28999089631971 0.0 0.0 0.0 16.28999089631971 0.0 0.0 0.0 34.385447050020396" Properties=species:S:1:pos:R:3:initial_magmoms:R:1 pbc="T T T"
Si      -1.07820252      -2.03238927       0.35640536       0.00000000
Si      -0.65419011       2.13241706       0.77583928       0.00000000
Si       2.07616050      -0.13349655       1.13073167       0.00000000
Si      -0.16825941      -0.08522928      -2.43655414       0.00000000
Si       1.01050128       3.15624356      -0.45904597       0.00000000
Si      -3.20618151      -1.64952540      -0.64362716       0.00000000
Si      -2.73123027       2.45745468      -0.19190529       0.00000000
Si      -0.14455746      -3.49816347      -1.13692106       0.00000000
Si      -3.65140350       0.37424646       0.39787423       0.00000000
Si      -0.12883761      -3.00364794       2.30276029       0.00000000
