10
Lattice="16.28999089631971 0.0 0.0 0.0 16.28999089631971 0.0 0.0 0.0 34.385447050020396" Properties=species:S:1:pos:R:3:initial_magmoms:R:1 pbc="T T T"
Si      -0.04614957       2.08977894      -1.12237600       0.00000000
Si       1.14007194      -0.06483420       2.07990808       0.00000000
Si       1.18573281      -1.37841093      -1.53768367       0.00000000
Si      -2.25114768      -0.78037245       0.04965261       0.00000000
Si      -0.65355480      -2.57274486      -2.35076240       0.00000000
Si      -3.20051259       0.19088622      -1.89670232       0.00000000
Si      -3.21958818       0.31570020       1.89027224       0.00000000
Si       2.66128101       0.10580355      -2.65129138       0.00000000
Si      -2.12231007       2.22327549      -2.25310768       0.00000000
Si      -2.10572685      -3.13419600      -0.52884847       0.00000000
