10
Lattice="16.28999089631971 0.0 0.0 0.0 16.28999089631971 0.0 0.0 0.0 34.385447050020396" Properties=species:S:1:pos:R:3:initial_magmoms:R:1 pbc="T T T"
Si      -0.82039698       0.86517819      -1.99480405       0.00000000
Si      -1.45591875      -0.98059203       1.53737420       0.00000000
Si       1.13490607      -2.06816930      -0.13461910       0.00000000
Si       1.62041258       1.52243082       0.84605440       0.00000000
Si      -2.44970649       1.15553115       1.60965245       0.00000000
Si      -2.60120349      -2.57024339       0.18117702       0.00000000
Si       3.68519615       0.42999898       0.31129163       0.00000000
Si       1.02987009       1.68355521      -3.22140241       0.00000000
Si       1.39380239       1.55976750       3.15448829       0.00000000
Si      -1.63380555      -1.02944688      -3.26448740       0.00000000
