10
Lattice="16.28999089631971 0.0 0.0 0.0 16.28999089631971 0.0 0.0 0.0 34.385447050020396" Properties=species:S:1:pos:R:3:initial_magmoms:R:1 pbc="T T T"
Si       1.35720135      -1.35690813      -1.35743505       0.00000000
Si       1.35690813       1.35769005       1.35698804       0.00000000
Si      -1.35771286       1.35778779      -1.35609402       0.00000000
Si      -1.35939724      -1.35637056       1.35647226       0.00000000
Si      -2.71551116      -0.00053757       2.70957474       0.00000000
Si      -2.71309040       0.00127062      -2.71218804       0.00000000
Si      -0.00148239       2.71533123      -2.71339153       0.00000000
Si       2.71502172      -2.71479366       0.00044701       0.00000000
Si      -2.71503038      -2.71485882      -0.00041263       0.00000000
Si      -2.71491708       2.71507059      -0.00072209       0.00000000
