10
Lattice="16.28999089631971 0.0 0.0 0.0 16.28999089631971 0.0 0.0 0.0 34.385447050020396" Properties=species:S:1:pos:R:3:initial_magmoms:R:1 pbc="T T T"
Si       2.09187450      -0.42036508      -0.94150845       0.00000000
Si      -0.11556126       0.17628875       2.32903079       0.00000000
Si      -1.55310489      -1.71600556      -0.39110029       0.00000000
Si      -0.84307266       2.19759268      -0.39811493       0.00000000
Si      -2.53281807      -0.00519977       2.39542912       0.00000000
Si      -2.68286526       1.98331402       1.08761230       0.00000000
Si      -2.12856543      -1.14240208      -2.55542470       0.00000000
Si       3.19601559       1.68792745      -0.64218297       0.00000000
Si       1.79088580      -0.51999635      -3.25829801       0.00000000
Si      -0.57081789      -3.82093420      -0.39213186       0.00000000
