10
Lattice="16.28999089631971 0.0 0.0 0.0 16.28999089631971 0.0 0.0 0.0 34.385447050020396" Properties=species:S:1:pos:R:3:initial_magmoms:R:1 pbc="T T T"
Si       0.87029325       0.44183367      -2.12684424       0.00000000
Si       1.51881444      -1.77271852       0.53431576       0.00000000
Si       0.28087218       2.11256865       1.09455816       0.00000000
Si      -2.38557276      -0.41409180       0.15813876       0.00000000
Si       0.18652050      -1.68543670      -2.95185474       0.00000000
Si      -3.24920340       1.59373215      -0.78955908       0.00000000
Si       0.46690398       1.47277890       3.37816575       0.00000000
Si       1.33960815      -3.12227891      -1.51897797       0.00000000
Si      -2.73663855      -0.22766904       2.62814996       0.00000000
Si       3.67529183      -0.53427942       0.86352221       0.00000000
