10
Lattice="16.28999089631971 0.0 0.0 0.0 16.28999089631971 0.0 0.0 0.0 34.385447050020396" Properties=species:S:1:pos:R:3:initial_magmoms:R:1 pbc="T T T"
Si       1.36470615      -1.34190504       1.26985527       0.00000000
Si      -1.32283508      -1.35597960      -1.34732572       0.00000000
Si      -1.47081988       1.22544783       1.38133295       0.00000000
Si       1.39459830       1.36212093      -1.34024232       0.00000000
Si       2.18228496       0.51453594       2.42362520       0.00000000
Si       0.33203418       2.19771648       2.50168021       0.00000000
Si      -2.66793940      -2.70084942       0.02073444       0.00000000
Si      -2.67903289       0.00158013      -2.70073768       0.00000000
Si      -2.66847697       2.71902906       0.00814936       0.00000000
Si       0.03327884      -2.71181259      -2.70042821       0.00000000
