10
Lattice="16.28999089631971 0.0 0.0 0.0 16.28999089631971 0.0 0.0 0.0 34.385447050020396" Properties=species:S:1:pos:R:3:initial_magmoms:R:1 pbc="T T T"
Si       0.37661081      -2.20615470      -0.28956001       0.00000000
Si       2.08944404      -0.12412980       1.02881315       0.00000000
Si      -1.22608314       0.49029642       1.96564518       0.00000000
Si       0.69209761       1.59879834      -1.60401323       0.00000000
Si      -1.90674450      -2.55466296      -0.51636655       0.00000000
Si       1.70697113       0.00110772      -3.01041319       0.00000000
Si      -0.88713711      -1.62008937       3.02592103       0.00000000
Si      -3.41376498       0.19508904       1.07733104       0.00000000
Si       1.48581320      -1.64072880       2.84560365       0.00000000
Si       2.76479486       2.20128399       1.12529877       0.00000000
