10
Lattice="16.28999089631971 0.0 0.0 0.0 16.28999089631971 0.0 0.0 0.0 34.385447050020396" Properties=species:S:1:pos:R:3:initial_magmoms:R:1 pbc="T T T"
Si       1.22704425       1.54394991       1.32215556       0.00000000
Si       1.71934434      -1.22642523      -1.24152165       0.00000000
Si      -1.30512222      -1.85922657       1.09933774       0.00000000
Si      -2.05548849       0.25998840      -1.49470183       0.00000000
Si       1.57428189       2.68229511      -0.74238222       0.00000000
Si      -0.00444717      -2.47873527      -2.31276646       0.00000000
Si      -0.97409313       3.29934402       1.03579340       0.00000000
Si      -3.54058263      -0.78364674       1.35100497       0.00000000
Si      -1.77124428       2.38272201      -2.51117060       0.00000000
Si       2.55889577      -2.90478393       0.37428580       0.00000000
