10
Lattice="16.28999089631971 0.0 0.0 0.0 16.28999089631971 0.0 0.0 0.0 34.385447050020396" Properties=species:S:1:pos:R:3:initial_magmoms:R:1 pbc="T T T"
Si      -1.35360911       1.34844113      -1.35994519       0.00000000
Si       1.35930209       1.35612186       1.35812276       0.00000000
Si      -1.35673679      -1.35977693       1.35757259       0.00000000
Si       1.35653768      -1.35648635      -1.36410583       0.00000000
Si      -2.71076159       2.71608600      -0.00048140       0.00000000
Si       2.71469525       2.71359363      -0.00079087       0.00000000
Si       0.00148935       2.71330041       2.71517957       0.00000000
Si      -2.71270010      -2.71650587       0.00178804       0.00000000
Si      -2.71431281      -0.00119620       2.71507642       0.00000000
Si       0.00124105      -2.71645700       2.71535150       0.00000000
