10
Lattice="16.28999089631971 0.0 0.0 0.0 16.28999089631971 0.0 0.0 0.0 34.385447050020396" Properties=species:S:1:pos:R:3:initial_magmoms:R:1 pbc="T T T"
Si      -1.35011520       1.34933328       1.35781329       0.00000000
Si      -1.35591444      -1.34894232      -1.37688347       0.00000000
Si       1.36487394      -1.36544409       1.35585332       0.00000000
Si       1.36122498       1.32116787      -1.40492482       0.00000000
Si       0.32265603      -2.33955351      -2.72909537       0.00000000
Si       2.33572277      -0.61121709      -2.84581684       0.00000000
Si      -2.70747945       2.70441693      -0.00165050       0.00000000
Si       0.00584811       2.70606222       2.71359784       0.00000000
Si      -2.70871749      -0.00713502       2.71476695       0.00000000
Si       2.71912258       2.70935280      -0.00808058       0.00000000
