10
Lattice="16.28999089631971 0.0 0.0 0.0 16.28999089631971 0.0 0.0 0.0 34.385447050020396" Properties=species:S:1:pos:R:3:initial_magmoms:R:1 pbc="T T T"
Si       1.35011520      -1.34933328      -1.35781329       0.00000000
Si       1.35596331       1.35672894       1.35578455       0.00000000
Si      -1.35736425       1.35508365      -1.35946379       0.00000000
Si      -1.35860229      -1.35646830       1.35695366       0.00000000
Si      -2.68390782      -0.03227049      -2.70104715       0.00000000
Si       2.71394116       0.00004887       2.71356346       0.00000000
Si      -2.71591767      -2.71217097      -0.00068771       0.00000000
Si      -0.00161271       2.71530967       2.71328837       0.00000000
Si      -0.00118917      -2.71533123       2.71339153       0.00000000
Si       2.71270010       2.71650587      -0.00178804       0.00000000
