10
Lattice="16.28999089631971 0.0 0.0 0.0 16.28999089631971 0.0 0.0 0.0 34.385447050020396" Properties=species:S:1:pos:R:3:initial_magmoms:R:1 pbc="T T T"
Si      -1.35731538      -1.35570267      -1.35764136       0.00000000
Si      -1.35790182       1.35702216       1.35640349       0.00000000
Si       1.35860229       1.35646830      -1.35695366       0.00000000
Si       1.35741312      -1.35886293       1.35643787       0.00000000
Si       2.70871749       0.00713502      -2.71476695       0.00000000
Si      -2.71355562      -0.00333945      -2.71328837       0.00000000
Si       2.71456560       2.71319724      -0.00116911       0.00000000
Si       0.00123804       2.71155195      -2.71641745       0.00000000
Si      -0.00040725       2.71425609       2.71376977       0.00000000
Si      -2.71472850       2.71415835      -0.00116911       0.00000000
