10
Lattice="16.28999089631971 0.0 0.0 0.0 16.28999089631971 0.0 0.0 0.0 34.385447050020396" Properties=species:S:1:pos:R:3:initial_magmoms:R:1 pbc="T T T"
Si      -1.36135530      -1.35024552      -1.36723491       0.00000000
Si       1.35782037       1.36298380      -1.37098293       0.00000000
Si       1.33278264      -1.45772694       1.30630386       0.00000000
Si      -1.36319607       1.39762370       1.39171736       0.00000000
Si       2.69715552      -0.12904938       2.58355201       0.00000000
Si       2.68385473       2.72661273      -0.01059072       0.00000000
Si      -2.71212210      -2.71301805       0.00818374       0.00000000
Si      -2.71637379       2.71928548      -0.00866514       0.00000000
Si       2.71968133      -2.71642266      -0.02853994       0.00000000
Si      -0.00053757      -2.71249677      -2.72614854       0.00000000
