10
Lattice="16.28999089631971 0.0 0.0 0.0 16.28999089631971 0.0 0.0 0.0 34.385447050020396" Properties=species:S:1:pos:R:3:initial_magmoms:R:1 pbc="T T T"
Si       1.46823888      -1.80348219      -0.40894635       0.00000000
Si       0.82620111       0.48316140       2.17653124       0.00000000
Si      -2.37295031       0.02063943       0.18031739       0.00000000
Si       0.60363084       1.51659900      -1.81679050       0.00000000
Si      -1.10920239      -0.56542590      -3.13516366       0.00000000
Si       3.48468024      -0.44851257      -0.07066213       0.00000000
Si      -2.71189634       2.13102522      -0.87995847       0.00000000
Si      -1.48581320       1.64072880      -2.84560365       0.00000000
Si       3.05918544       1.08805797       1.76741297       0.00000000
Si       1.63359867      -2.48938893      -2.60910041       0.00000000
