10
Lattice="16.28999089631971 0.0 0.0 0.0 16.28999089631971 0.0 0.0 0.0 34.385447050020396" Properties=species:S:1:pos:R:3:initial_magmoms:R:1 pbc="T T T"
Si       0.54148123      -1.91972763      -1.21387573       0.00000000
Si      -2.26929215       0.54561726      -0.45124047       0.00000000
Si       0.17207290      -0.53691840       2.31878392       0.00000000
Si       1.82199740       1.44225144      -0.56574408       0.00000000
Si       2.21209403      -2.75297742       0.16594426       0.00000000
Si      -2.08632287      -1.30409595       2.58234852       0.00000000
Si      -0.01553414       1.69385049       3.15631072       0.00000000
Si      -3.08942849       0.66363831       1.72986404       0.00000000
Si       1.61597777      -1.02714966      -3.16531971       0.00000000
Si       3.33634838       0.00529425      -1.65229043       0.00000000
