10
Lattice="16.28999089631971 0.0 0.0 0.0 16.28999089631971 0.0 0.0 0.0 34.385447050020396" Properties=species:S:1:pos:R:3:initial_magmoms:R:1 pbc="T T T"
Si      -1.96604403       0.94716576      -0.91864212       0.00000000
Si       1.60140800       1.62393381      -0.70125720       0.00000000
Si      -0.50758500      -0.31195350       2.31066895       0.00000000
Si       0.18760704      -2.23076889      -0.83752680       0.00000000
Si      -3.07389435      -1.03021218      -1.42644668       0.00000000
Si       0.01553414      -1.69385049      -3.15631072       0.00000000
Si      -2.07078873      -2.99794644      -0.57396220       0.00000000
Si      -2.96423007       2.13545610       0.80946826       0.00000000
Si       3.33494093       0.43816842      -1.90725866       0.00000000
Si      -0.40088713       1.70940744       3.49652052       0.00000000
