10
Lattice="16.28999089631971 0.0 0.0 0.0 16.28999089631971 0.0 0.0 0.0 34.385447050020396" Properties=species:S:1:pos:R:3:initial_magmoms:R:1 pbc="T T T"
Si       0.98609886       1.65322323       1.42752780       0.00000000
Si      -1.70659579      -0.93991671       1.46690948       0.00000000
Si       1.46551356      -2.01929211      -0.06677658       0.00000000
Si      -0.38714814       0.73086714      -2.53362431       0.00000000
Si       2.20112109       0.30964032       2.87691991       0.00000000
Si       1.18778535      -2.43084267      -2.56866310       0.00000000
Si       2.80811907       2.50535313       0.13853904       0.00000000
Si      -0.52080759      -2.39467887       2.87731190       0.00000000
Si       3.32063505      -1.17191889       1.40917284       0.00000000
Si      -2.96202210      -2.49320079       0.20950209       0.00000000
