10
Lattice="16.28999089631971 0.0 0.0 0.0 16.28999089631971 0.0 0.0 0.0 34.385447050020396" Properties=species:S:1:pos:R:3:initial_magmoms:R:1 pbc="T T T"
Si      -0.28388583      -2.38835835       0.21821017       0.00000000
Si       2.32982838      -0.14112027       0.63121400       0.00000000
Si      -0.28098621       0.84214413      -2.35984016       0.00000000
Si      -1.57778424       1.21427289       1.70734156       0.00000000
Si      -1.22758182       2.98398591      -1.99862084       0.00000000
Si       1.42662933      -3.43228671      -1.20386956       0.00000000
Si       3.51606618       1.77360633      -0.13561628       0.00000000
Si       3.33045792      -2.08472904      -0.55432810       0.00000000
Si       0.18094932       3.96988929      -0.26342706       0.00000000
Si      -2.50070396      -3.11111307      -0.29203577       0.00000000
