10
Lattice="16.28999089631971 0.0 0.0 0.0 16.28999089631971 0.0 0.0 0.0 34.385447050020396" Properties=species:S:1:pos:R:3:initial_magmoms:R:1 pbc="T T T"
Si       1.35586352       1.35558864       1.35767575       0.00000000
Si       1.35662100      -1.35729909      -1.35760698       0.00000000
Si      -1.35797785       1.35668007      -1.35777891       0.00000000
Si      -1.35714706      -1.35856971       1.35819153       0.00000000
Si      -2.71394116      -0.00004887      -2.71356346       0.00000000
Si       2.71519723       2.71484345       0.00006877       0.00000000
Si       0.00121088       2.71691086       2.71335714       0.00000000
Si       0.00104798      -2.71482624      -2.71552343       0.00000000
Si      -2.71513033      -2.71538010      -0.00017193       0.00000000
Si       2.71532755      -2.71529865      -0.00006877       0.00000000
