10
Lattice="16.28999089631971 0.0 0.0 0.0 16.28999089631971 0.0 0.0 0.0 34.385447050020396" Properties=species:S:1:pos:R:3:initial_magmoms:R:1 pbc="T T T"
Si       1.35708732      -1.35876356      -1.36070167       0.00000000
Si      -1.35882709       1.35842310      -1.36193955       0.00000000
Si      -1.38746328      -1.34928278       1.35509684       0.00000000
Si       1.37412666       1.36379880       1.35630033       0.00000000
Si      -0.02739978       2.72833065       2.60834393       0.00000000
Si      -0.10073736      -2.69899708       2.72353524       0.00000000
Si      -2.71349765      -2.71291171      -0.00529536       0.00000000
Si       2.71622718       2.71186146      -0.00216628       0.00000000
Si      -2.71494101       2.71425609      -0.00883706       0.00000000
Si       0.00057015       2.71479366      -2.71841181       0.00000000
