10
Lattice="10.86 0.0 0.0 0.0 10.86 0.0 0.0 0.0 10.86" Properties=species:S:1:pos:R:3:initial_magmoms:R:1 pbc="T T T"
Si      -1.20009516       1.17740862      -1.42931718       0.00000000
Si      -1.20009516      -1.53759138       1.28568282       0.00000000
Si       1.51490484      -1.53759138      -1.42931718       0.00000000
Si       2.14832520       1.63776402       0.57007398       0.00000000
Si       0.30829368       2.35147236       2.40063558       0.00000000
Si      -2.55759516       2.53490862      -0.07181718       0.00000000
Si      -2.55759516      -0.18009138       2.64318282       0.00000000
Si       2.77253628      -0.09947760       2.52845778       0.00000000
Si       0.36123618       2.62661046      -2.66784588       0.00000000
Si      -2.55759516      -0.18009138      -2.78681718       0.00000000
