10
Lattice="10.86 0.0 0.0 0.0 10.86 0.0 0.0 0.0 10.86" Properties=species:S:1:pos:R:3:initial_magmoms:R:1 pbc="T T T"
Si       1.20380928       1.37774304       1.39661772       0.00000000
Si      -1.51119072       1.37774304      -1.31838228       0.00000000
Si      -1.51119072      -1.33725696       1.39661772       0.00000000
Si       1.52891424      -1.61455620      -1.12370592       0.00000000
Si       0.05014062      -2.60305512      -2.55691098       0.00000000
Si       2.47434240      -0.04537308       2.74197624       0.00000000
Si       2.55036240      -0.17462880      -2.67928146       0.00000000
Si       2.56130928       2.73524304       0.03911772       0.00000000
Si      -0.00280188      -2.87819322       2.51157048       0.00000000
Si      -0.15369072       2.73524304      -2.67588228       0.00000000
