10
Lattice="10.86 0.0 0.0 0.0 10.86 0.0 0.0 0.0 10.86" Properties=species:S:1:pos:R:3:initial_magmoms:R:1 pbc="T T T"
Si       0.62421108      -1.73724162       1.95838380       0.00000000
Si      -1.84003152       0.71370834       1.83056160       0.00000000
Si      -0.30831540       1.97734536      -1.80471480       0.00000000
Si      -2.14832520      -1.63776402      -0.57007398       0.00000000
Si      -0.63342036      -3.17535540      -1.99939116       0.00000000
Si      -1.78708902       0.98884644      -3.23791986       0.00000000
Si       2.08157964      -3.17535540       0.71560884       0.00000000
Si      -3.34842036      -0.46035540      -1.99939116       0.00000000
Si       3.35697804      -1.81251228      -0.97261074       0.00000000
Si       0.71438166      -1.89451614      -3.48652698       0.00000000
