10
Lattice="10.86 0.0 0.0 0.0 10.86 0.0 0.0 0.0 10.86" Properties=species:S:1:pos:R:3:initial_magmoms:R:1 pbc="T T T"
Si      -1.62381978      -0.89270286      -1.18927860       0.00000000
Si       1.27535496       1.51070202      -1.14445938       0.00000000
Si      -1.79082486       1.40254728       1.26684072       0.00000000
Si       2.36930448       0.33561744      -2.59871112       0.00000000
Si      -0.34569552      -2.37938256      -2.59871112       0.00000000
Si       2.36930448       3.05061744       0.11628888       0.00000000
Si      -3.06069552      -2.37938256       0.11628888       0.00000000
Si      -0.34569552       3.05061744      -2.59871112       0.00000000
Si      -3.06069552       0.33561744      -2.59871112       0.00000000
Si      -0.48180390      -2.72701116       2.94163734       0.00000000
