10
Lattice="10.86 0.0 0.0 0.0 10.86 0.0 0.0 0.0 10.86" Properties=species:S:1:pos:R:3:initial_magmoms:R:1 pbc="T T T"
Si      -1.26987066      -1.06692984       1.56444816       0.00000000
Si      -1.26987066       1.64807016      -1.15055184       0.00000000
Si       1.79082486      -1.40254728      -1.26684072       0.00000000
Si       1.44512934       1.64807016       1.56444816       0.00000000
Si       0.16700508      -2.29525014      -2.45611932       0.00000000
Si      -2.62737066      -2.42442984       0.20694816       0.00000000
Si      -0.13859532      -2.54386812       2.57755584       0.00000000
Si      -2.62737066       0.29057016      -2.50805184       0.00000000
Si       3.06617982       0.10815474      -2.41130010       0.00000000
Si       0.08762934       3.00557016      -2.50805184       0.00000000
