10
Lattice="16.28999089631971 0.0 0.0 0.0 16.28999089631971 0.0 0.0 0.0 34.31052061344573" Properties=species:S:1:pos:R:3:initial_magmoms:R:1 pbc="T T T"
Si      -1.31619942       1.37492487       1.34355957       0.00000000
Si       1.40742342      -1.36785501       1.32266788       0.00000000
Si       1.17463932       1.59896124      -1.32028570       0.00000000
Si      -1.76378346      -0.77243922      -1.48307449       0.00000000
Si      -2.53485595       2.60283249      -0.26187176       0.00000000
Si      -2.65210648      -2.65147443      -0.03225877       0.00000000
Si      -2.67178806       0.01573614       2.69905234       0.00000000
Si      -0.70346736       3.38082660      -1.58755009       0.00000000
Si       0.04756680      -2.70308767       2.69788578       0.00000000
Si       0.04492782       2.72771163       2.69949837       0.00000000
