10
Lattice="16.28999089631971 0.0 0.0 0.0 16.28999089631971 0.0 0.0 0.0 34.31052061344573" Properties=species:S:1:pos:R:3:initial_magmoms:R:1 pbc="T T T"
Si       1.16268246       0.76975137       1.92677698       0.00000000
Si       0.53250381       1.84617828      -1.58288244       0.00000000
Si       1.50052077      -2.03949497      -0.04491250       0.00000000
Si      -2.53149858      -0.64628946       0.63714672       0.00000000
Si      -2.42307234      -1.17781587      -1.66769810       0.00000000
Si       1.90509921       0.51030054      -3.00093705       0.00000000
Si       3.15358110      -0.98100009      -1.57070220       0.00000000
Si      -0.81438597      -2.22828141      -3.00234378       0.00000000
Si       1.06124463       3.09180942       2.04741284       0.00000000
Si       1.30196196       3.65353749      -0.24339897       0.00000000
