10
Lattice="16.28999089631971 0.0 0.0 0.0 16.28999089631971 0.0 0.0 0.0 34.31052061344573" Properties=species:S:1:pos:R:3:initial_magmoms:R:1 pbc="T T T"
Si       1.51822800       1.74949713       0.58677885       0.00000000
Si      -0.09088191      -2.17832228       1.02187081       0.00000000
Si      -2.42971866       0.59658867      -0.21711710       0.00000000
Si      -1.29083589       1.03408920      -2.79548554       0.00000000
Si      -3.21707952      -1.40106543      -1.24066912       0.00000000
Si       0.05760144      -3.53435075      -1.21315207       0.00000000
Si       1.97332173      -2.34623960       2.15566259       0.00000000
Si       2.40334515       2.45013003      -1.50585528       0.00000000
Si      -1.33501437      -2.11585013       3.10784869       0.00000000
Si      -3.43007127       0.23138316       2.06103413       0.00000000
