10
Lattice="16.28999089631971 0.0 0.0 0.0 16.28999089631971 0.0 0.0 0.0 34.31052061344573" Properties=species:S:1:pos:R:3:initial_magmoms:R:1 pbc="T T T"
Si       2.10258288      -0.93698614      -0.01152834       0.00000000
Si      -0.91715958      -1.82670426      -1.07515507       0.00000000
Si      -0.49207203       0.28098458       2.26271148       0.00000000
Si      -1.57876164       1.65133196      -0.67543729       0.00000000
Si      -1.75045824       2.14529363       1.67051156       0.00000000
Si       0.32697288      -1.88917641      -3.16113296       0.00000000
Si      -3.01221648       0.52052903      -2.12196964       0.00000000
Si      -1.92663459      -1.47697569       2.84489272       0.00000000
Si       2.39117652      -2.05709373      -2.02734117       0.00000000
Si       1.55189943       0.86900471       3.30101703       0.00000000
