10
Lattice="16.28999089631971 0.0 0.0 0.0 16.28999089631971 0.0 0.0 0.0 34.31052061344573" Properties=species:S:1:pos:R:3:initial_magmoms:R:1 pbc="T T T"
Si      -1.43345484      -1.13080293      -1.44653236       0.00000000
Si       0.43622991       1.82317680      -1.39287067       0.00000000
Si       1.57876164      -1.65133196       0.67543729       0.00000000
Si      -0.17169660       0.49396167       2.34594885       0.00000000
Si       0.01200573       3.23003007       0.37326436       0.00000000
Si       1.08668961      -1.37034738       2.93814876       0.00000000
Si       1.16238924       2.41241868       2.26789237       0.00000000
Si       0.66160206      -3.47803622      -0.39971779       0.00000000
Si      -1.68575436      -3.20770853      -0.33270930       0.00000000
Si      -0.43310223      -0.76559742      -3.72468358       0.00000000
