10
Lattice="16.28999089631971 0.0 0.0 0.0 16.28999089631971 0.0 0.0 0.0 34.31052061344573" Properties=species:S:1:pos:R:3:initial_magmoms:R:1 pbc="T T T"
Si      -1.35672894       1.35783666       1.35732495       0.00000000
Si       1.35788553      -1.35767376       1.35753082       0.00000000
Si      -1.35946566      -1.35848826      -1.35578098       0.00000000
Si       1.35752715       1.35785295      -1.35986393       0.00000000
Si      -0.00166158      -2.71015101      -2.71876717       0.00000000
Si      -2.71410948      -0.00043983      -2.71482146       0.00000000
Si      -2.71497285      -2.71417464       0.00020586       0.00000000
Si      -2.71427238       2.71531494      -0.00030879       0.00000000
Si      -0.00156384      -2.71547784       2.71437542       0.00000000
Si       0.00081450       2.71484253       2.71516457       0.00000000
