10
Lattice="16.28999089631971 0.0 0.0 0.0 16.28999089631971 0.0 0.0 0.0 34.31052061344573" Properties=species:S:1:pos:R:3:initial_magmoms:R:1 pbc="T T T"
Si      -1.33716465      -1.34907264      -1.37592127       0.00000000
Si       1.37005416       1.36542780      -1.37372539       0.00000000
Si       1.36539522      -1.36347300       1.41815754       0.00000000
Si      -1.34496756       1.29787317       1.50462010       0.00000000
Si       2.13485337       0.44388621       2.75764101       0.00000000
Si       0.64490481       2.34631386       2.60983121       0.00000000
Si      -2.69345376       2.72741841       0.02353703       0.00000000
Si      -2.70617625      -2.71746522       0.00850901       0.00000000
Si      -2.70122409       0.00698841      -2.73259432       0.00000000
Si       2.73799062      -2.69935074       0.00010293       0.00000000
