10
Lattice="16.28999089631971 0.0 0.0 0.0 16.28999089631971 0.0 0.0 0.0 34.31052061344573" Properties=species:S:1:pos:R:3:initial_magmoms:R:1 pbc="T T T"
Si      -2.13696781       0.89288748      -0.10842131       0.00000000
Si       1.43345484       1.13080293       1.44653236       0.00000000
Si      -0.25229952      -2.07690560       1.11382305       0.00000000
Si       1.00035261       0.36520551      -2.27815122       0.00000000
Si       2.09505690      -2.34723329       1.04681457       0.00000000
Si       1.86968475       2.95397973       0.05366168       0.00000000
Si      -3.36614021      -1.13058139       0.14822153       0.00000000
Si       0.21299175      -1.63244859      -3.30170324       0.00000000
Si       3.01221648      -0.52052903       2.12196964       0.00000000
Si      -2.34839572       2.42331669       1.70447900       0.00000000
