10
Lattice="16.28999089631971 0.0 0.0 0.0 16.28999089631971 0.0 0.0 0.0 34.31052061344573" Properties=species:S:1:pos:R:3:initial_magmoms:R:1 pbc="T T T"
Si       1.35933534      -1.35718506      -1.36257447       0.00000000
Si      -1.35682668       1.35962856      -1.36308912       0.00000000
Si       1.33667595       1.37295378       1.37743093       0.00000000
Si      -1.34868168      -1.35355239       1.39396861       0.00000000
Si      -2.71578735      -2.71029762       0.00075483       0.00000000
Si       2.71482624      -2.71554300      -0.00329381       0.00000000
Si      -2.71443528       2.71652040      -0.00717090       0.00000000
Si       2.71399545       2.71904535      -0.00233312       0.00000000
Si      -2.71371852       0.00066789      -2.72051701       0.00000000
Si       0.00179190      -2.71419093      -2.72041408       0.00000000
