10
Lattice="16.28999089631971 0.0 0.0 0.0 16.28999089631971 0.0 0.0 0.0 34.31052061344573" Properties=species:S:1:pos:R:3:initial_magmoms:R:1 pbc="T T T"
Si      -0.92401767      -1.90451277      -0.83964753       0.00000000
Si      -1.03215069       2.02170303      -0.49177297       0.00000000
Si       1.99251135       0.55039023      -1.19438420       0.00000000
Si      -0.65567250      -0.17586684       2.29263027       0.00000000
Si       2.21140008       2.47445100       0.16493076       0.00000000
Si       0.11912877       3.30838497       1.20701048       0.00000000
Si       2.51836884      -2.33085465       0.83206490       0.00000000
Si      -0.25949970      -3.64404042       0.66713414       0.00000000
Si      -3.21396813       1.83000231       0.39014515       0.00000000
Si      -0.98833059       2.04926571       2.97160154       0.00000000
