10
Lattice="16.28999089631971 0.0 0.0 0.0 16.28999089631971 0.0 0.0 0.0 34.31052061344573" Properties=species:S:1:pos:R:3:initial_magmoms:R:1 pbc="T T T"
Si      -0.78736086      -1.99765410      -1.02355202       0.00000000
Si      -1.16861202       2.06576748      -0.74114197       0.00000000
Si       2.42971866      -0.59658867       0.21711710       0.00000000
Si      -1.00035261      -0.36520551       2.27815122       0.00000000
Si       1.13888277       0.43750053      -2.57836844       0.00000000
Si       0.86933214       2.58877422       2.33181291       0.00000000
Si       0.47423448      -1.90487767      -3.22278900       0.00000000
Si       0.43310223       0.76559742       3.72468358       0.00000000
Si       2.33883675      -2.77491095       1.23898790       0.00000000
Si      -3.13732042       0.52768197       2.16972992       0.00000000
