10
Lattice="16.28999089631971 0.0 0.0 0.0 16.28999089631971 0.0 0.0 0.0 34.31052061344573" Properties=species:S:1:pos:R:3:initial_magmoms:R:1 pbc="T T T"
Si       1.36635633       1.35466011      -1.34752929       0.00000000
Si      -1.35690813       1.35324525       1.36175101       0.00000000
Si       1.35884664      -1.36215351       1.36140791       0.00000000
Si      -1.36340784      -1.38390066      -1.36448213       0.00000000
Si       2.70645318      -0.02181231      -2.68927040       0.00000000
Si       0.00182448       2.60272239      -2.79079872       0.00000000
Si      -2.71052568       2.70945121       0.00271053       0.00000000
Si       2.71894761       2.70822132       0.00583279       0.00000000
Si      -2.70912474      -2.71953405       0.00325950       0.00000000
Si       0.00184077       2.71035856       2.71914459       0.00000000
