10
Lattice="16.28999089631971 0.0 0.0 0.0 16.28999089631971 0.0 0.0 0.0 34.31052061344573" Properties=species:S:1:pos:R:3:initial_magmoms:R:1 pbc="T T T"
Si      -1.35760860       1.35689184       1.35591822       0.00000000
Si       1.35863487       1.35661491      -1.35746220       0.00000000
Si      -1.35689184      -1.35896067      -1.35742789       0.00000000
Si       1.35682668      -1.35962856       1.36308912       0.00000000
Si       0.01537776       2.70182682       2.70428813       0.00000000
Si      -2.70737682      -0.00908982       2.71705165       0.00000000
Si      -2.71201947       2.71391400      -0.00054897       0.00000000
Si       0.00131949       2.71280628      -2.71454698       0.00000000
Si       2.71402803       2.71358820      -0.00092638       0.00000000
Si      -2.71387165      -0.00138465      -2.71451267       0.00000000
