10
Lattice="16.28999089631971 0.0 0.0 0.0 16.28999089631971 0.0 0.0 0.0 34.31052061344573" Properties=species:S:1:pos:R:3:initial_magmoms:R:1 pbc="T T T"
Si      -0.99189810      -1.68572178      -1.36473603       0.00000000
Si       0.17282061      -0.63552177       2.30659466       0.00000000
Si       1.74013038       0.95218308      -1.37911215       0.00000000
Si      -1.84026501       1.59053998       0.07984063       0.00000000
Si       2.57336388      -1.03703769       2.23745892       0.00000000
Si      -2.16323055      -0.35870580      -2.94315810       0.00000000
Si       0.54149589       2.35092623      -2.91522932       0.00000000
Si      -2.85334011      -2.49313563      -0.03976592       0.00000000
Si       2.85640263       2.53971267       0.04220196       0.00000000
Si      -1.25473725      -2.53299726       2.61398278       0.00000000
