10
Lattice="16.28999089631971 0.0 0.0 0.0 16.28999089631971 0.0 0.0 0.0 34.31052061344573" Properties=species:S:1:pos:R:3:initial_magmoms:R:1 pbc="T T T"
Si      -1.35643572       1.35700866      -1.35766806       0.00000000
Si       1.35713619       1.35646131       1.35842289       0.00000000
Si      -1.35865116      -1.35740612       1.35605546       0.00000000
Si       1.35860229      -1.35747128      -1.35780530       0.00000000
Si      -2.71116099      -0.00215957       2.71156196       0.00000000
Si      -2.71404432      -2.71437941      -0.00048035       0.00000000
Si      -2.71401174       2.71461237      -0.00058328       0.00000000
Si       2.71463076       0.00097681      -2.71420387       0.00000000
Si      -0.00185706      -2.71157753       2.71773786       0.00000000
Si      -2.71518462      -0.00010465      -2.71506163       0.00000000
