10
Lattice="16.28999089631971 0.0 0.0 0.0 16.28999089631971 0.0 0.0 0.0 34.31052061344573" Properties=species:S:1:pos:R:3:initial_magmoms:R:1 pbc="T T T"
Si       1.35205371      -1.35765212      -1.36205981       0.00000000
Si       1.35101115       1.35521837       1.36857881       0.00000000
Si      -1.36291914       1.35787689      -1.36075601       0.00000000
Si      -1.37953494      -1.35874355       1.38669478       0.00000000
Si      -0.10466325       2.58916143       2.80166144       0.00000000
Si       2.71088406      -2.71278464      -0.00010293       0.00000000
Si       2.70769122       2.71729857      -0.00277915       0.00000000
Si       2.71023246       0.00171577      -2.71931614       0.00000000
Si      -2.72191239      -2.71016195      -0.00144104       0.00000000
Si      -0.00434943      -2.71358285      -2.71938476       0.00000000
