10
Lattice="16.28999089631971 0.0 0.0 0.0 16.28999089631971 0.0 0.0 0.0 34.31052061344573" Properties=species:S:1:pos:R:3:initial_magmoms:R:1 pbc="T T T"
Si       1.95629868      -0.63573908       1.12936573       0.00000000
Si      -1.74788442      -1.18881392       1.10970579       0.00000000
Si      -0.29623365       2.25265125       0.73592677       0.00000000
Si      -0.15382647      -0.58331460      -2.40887438       0.00000000
Si      -0.41950008       1.55307720       3.02560633       0.00000000
Si       1.40846598       0.08347973       3.30684982       0.00000000
Si      -2.20297815       2.90692281      -0.45917795       0.00000000
Si       2.06407332      -1.37746841      -2.78436892       0.00000000
Si      -2.03647806      -0.06870633       3.12551862       0.00000000
Si       3.65299992       0.78099147       0.29191407       0.00000000
