10
Lattice="16.28999089631971 0.0 0.0 0.0 16.28999089631971 0.0 0.0 0.0 34.31052061344573" Properties=species:S:1:pos:R:3:initial_magmoms:R:1 pbc="T T T"
Si      -0.38131632      -2.32366750      -0.05994051       0.00000000
Si       2.28853323      -0.20838168       0.52663248       0.00000000
Si      -1.56934602       0.75243510       1.71751700       0.00000000
Si       0.38516076       0.80879850      -2.31585850       0.00000000
Si      -3.24946404       0.54204975      -0.28409127       0.00000000
Si       2.84416884       2.08000494       0.65186595       0.00000000
Si      -0.16477335       0.11642463       3.62192351       0.00000000
Si       3.06856359      -1.56983309      -1.30421224       0.00000000
Si      -2.11098852      -2.71590790      -1.63098582       0.00000000
Si      -2.96925975      -0.68183424      -2.28696903       0.00000000
