10
Lattice="16.28999089631971 0.0 0.0 0.0 16.28999089631971 0.0 0.0 0.0 34.31052061344573" Properties=species:S:1:pos:R:3:initial_magmoms:R:1 pbc="T T T"
Si       0.15916959       2.33619777      -0.28477748       0.00000000
Si      -1.81734498      -0.47768796      -1.46049675       0.00000000
Si       2.21715045      -0.71306217      -0.62685356       0.00000000
Si      -0.38516076      -0.80879850       2.31585850       0.00000000
Si      -2.14648443       2.77762419      -0.09274139       0.00000000
Si       1.90337247      -1.01718018       2.84249098       0.00000000
Si       1.04650218       2.88556173       1.82755090       0.00000000
Si      -3.35442051      -1.49063274       0.02888947       0.00000000
Si       2.68340283      -2.37863159       1.01164627       0.00000000
Si      -2.97465174       1.51405776      -1.89881389       0.00000000
