10
Lattice="16.28999089631971 0.0 0.0 0.0 16.28999089631971 0.0 0.0 0.0 34.31052061344573" Properties=species:S:1:pos:R:3:initial_magmoms:R:1 pbc="T T T"
Si      -0.85157604      -2.07520265       0.70909593       0.00000000
Si       2.34242055       0.30191886       0.18424760       0.00000000
Si      -1.40457267       0.63601047      -1.90440651       0.00000000
Si      -2.28698568      -0.58461552       2.04140850       0.00000000
Si      -0.35596908      -3.20078203      -1.40824180       0.00000000
Si       0.16477335      -0.11642463      -3.62192351       0.00000000
Si       3.20447106      -1.47401694      -1.17263132       0.00000000
Si      -3.49104474       1.05259464       0.72590809       0.00000000
Si      -0.96532911       0.59746833       3.59809282       0.00000000
Si       2.45330658      -0.32480631      -3.09529104       0.00000000
