10
Lattice="16.28999089631971 0.0 0.0 0.0 16.28999089631971 0.0 0.0 0.0 34.31052061344573" Properties=species:S:1:pos:R:3:initial_magmoms:R:1 pbc="T T T"
Si       1.35922131       1.34788347       1.38731580       0.00000000
Si      -1.36216980      -1.35715248       1.38608062       0.00000000
Si       1.19117367      -1.57038858      -1.33282380       0.00000000
Si      -1.28106189       1.49322285      -1.43577943       0.00000000
Si       2.67923259       2.72909628       0.02071670       0.00000000
Si      -2.70822879       2.70345582       0.03313026       0.00000000
Si      -2.71212210      -2.74300794       0.01319583       0.00000000
Si      -0.00298107       2.71085148       2.74498386       0.00000000
Si       2.72557764      -2.73230541       0.00754146       0.00000000
Si       2.71251306      -0.00338832       2.74975302       0.00000000
