10
Lattice="16.28999089631971 0.0 0.0 0.0 16.28999089631971 0.0 0.0 0.0 34.31052061344573" Properties=species:S:1:pos:R:3:initial_magmoms:R:1 pbc="T T T"
Si      -0.45944316      -0.92766663       2.07812077       0.00000000
Si      -0.77496417       2.22791814       0.11236702       0.00000000
Si       2.31461352       0.24594642      -0.45276188       0.00000000
Si      -1.29432195      -0.86121972      -1.80281300       0.00000000
Si      -0.04338027       2.63788857      -2.06985193       0.00000000
Si      -1.26848601       1.00361061      -3.24944829       0.00000000
Si       2.21429970       2.04305922      -2.04734422       0.00000000
Si      -2.80748376      -0.73761120       2.29726219       0.00000000
Si      -3.13478244       2.24541360       0.10039264       0.00000000
Si       3.39231105       1.00765053       1.59015628       0.00000000
