10
Lattice="16.28999089631971 0.0 0.0 0.0 16.28999089631971 0.0 0.0 0.0 34.31052061344573" Properties=species:S:1:pos:R:3:initial_magmoms:R:1 pbc="T T T"
Si      -2.31461352      -0.24594642       0.45276188       0.00000000
Si      -0.10031382       1.79711280      -1.59458234       0.00000000
Si       1.07769753       0.76170411       2.04291816       0.00000000
Si       0.80177751      -1.93012065      -1.25212884       0.00000000
Si      -3.08957769       1.98197172       0.56512890       0.00000000
Si      -2.35799379       2.39194215      -1.61709005       0.00000000
Si       0.17549217       0.68835024      -3.66652721       0.00000000
Si       3.46283046       0.81668286       1.45768328       0.00000000
Si       1.53407817      -1.15615017      -3.33265135       0.00000000
Si      -2.77405668      -1.17361305       2.53088266       0.00000000
