10
Lattice="16.28999089631971 0.0 0.0 0.0 16.28999089631971 0.0 0.0 0.0 34.31052061344573" Properties=species:S:1:pos:R:3:initial_magmoms:R:1 pbc="T T T"
Si       1.84358817       1.34382726      -0.36410345       0.00000000
Si      -1.09949355      -0.20266389      -2.08381632       0.00000000
Si       0.28092105      -2.34564597       0.11572945       0.00000000
Si      -0.95550624       0.27833094       2.20458942       0.00000000
Si      -1.39919697      -2.55603132      -1.88587882       0.00000000
Si       1.00258434       3.56369814      -0.50055646       0.00000000
Si      -2.95192719       1.23097014      -2.01450903       0.00000000
Si      -1.80555102      -1.92906180       2.74604405       0.00000000
Si       3.28193001       0.59627916      -2.09009515       0.00000000
Si       1.85026707      -3.09808107      -1.60178755       0.00000000
