10
Lattice="16.28999089631971 0.0 0.0 0.0 16.28999089631971 0.0 0.0 0.0 34.31052061344573" Properties=species:S:1:pos:R:3:initial_magmoms:R:1 pbc="T T T"
Si      -0.11846088       1.47303954      -1.83682817       0.00000000
Si       1.16916588      -1.96178841      -0.63359185       0.00000000
Si       1.19389410       1.61880246       1.26474654       0.00000000
Si      -1.78100199      -1.16626626       1.12321213       0.00000000
Si       2.40951906       0.20860974       2.66549834       0.00000000
Si      -0.33249519      -2.50150869       2.63679072       0.00000000
Si      -2.36719764       1.96620300      -2.10626884       0.00000000
Si       1.38917862      -3.32563608       1.29333751       0.00000000
Si      -0.28800720       2.89805616       2.64449686       0.00000000
Si       3.35388294      -1.54546488       1.46807080       0.00000000
