10
Lattice="16.28999089631971 0.0 0.0 0.0 16.28999089631971 0.0 0.0 0.0 34.31052061344573" Properties=species:S:1:pos:R:3:initial_magmoms:R:1 pbc="T T T"
Si       2.18373966       0.24783606       0.86726751       0.00000000
Si      -0.76864365      -1.89607455       1.18481156       0.00000000
Si       1.03265568      -0.34272531      -2.13665455       0.00000000
Si      -2.36809359       1.15043238      -0.26175511       0.00000000
Si      -1.04444964      -0.78731199       3.25675644       0.00000000
Si      -0.86921811      -1.21725396      -3.27799466       0.00000000
Si       2.70576900       2.59392186       0.15916659       0.00000000
Si       0.22444362       1.22372109       3.59622492       0.00000000
Si      -2.68938126      -2.00867103      -1.85012724       0.00000000
Si      -1.54755000       3.37696587      -0.96687101       0.00000000
