10
Lattice="16.28999089631971 0.0 0.0 0.0 16.28999089631971 0.0 0.0 0.0 34.31052061344573" Properties=species:S:1:pos:R:3:initial_magmoms:R:1 pbc="T T T"
Si      -0.35181513       1.86398325      -1.32071561       0.00000000
Si       2.25767997      -0.59482935       0.02250771       0.00000000
Si      -0.73158390      -0.40997043       2.18221895       0.00000000
Si      -1.22510574      -1.63427796      -1.17959636       0.00000000
Si       0.04338027      -2.63788857       2.06985193       0.00000000
Si      -2.50429428       2.40762942      -0.43745938       0.00000000
Si       2.53348596      -1.70359191      -2.04943716       0.00000000
Si       0.37203102      -2.37791646      -2.79356415       0.00000000
Si      -1.25094168      -3.49910829       0.26703893       0.00000000
Si       2.35799379      -2.39194215       1.61709005       0.00000000
