10
Lattice="16.28999089631971 0.0 0.0 0.0 16.28999089631971 0.0 0.0 0.0 34.31052061344573" Properties=species:S:1:pos:R:3:initial_magmoms:R:1 pbc="T T T"
Si       1.35658233      -1.35501849       1.36205981       0.00000000
Si       1.36718712       1.34833959      -1.35978502       0.00000000
Si      -1.35913986       1.35982404       1.35890324       0.00000000
Si      -1.36811565      -1.34648253      -1.37913960       0.00000000
Si      -0.01153332       2.70016524      -2.69177507       0.00000000
Si       2.70322776      -2.70309744       0.00878350       0.00000000
Si      -0.00146610      -2.71137276       2.71694871       0.00000000
Si       2.71249677       0.00291591       2.71715458       0.00000000
Si       2.71311579       2.71746522       0.00034311       0.00000000
Si      -2.72033226      -2.71024875       0.00082345       0.00000000
