10
Lattice="16.28999089631971 0.0 0.0 0.0 16.28999089631971 0.0 0.0 0.0 34.31052061344573" Properties=species:S:1:pos:R:3:initial_magmoms:R:1 pbc="T T T"
Si       0.19279215      -2.02031838       1.10925975       0.00000000
Si       1.65887586       1.65102408       0.17021459       0.00000000
Si      -0.55213326      -0.50850864      -2.23931169       0.00000000
Si      -1.92163356       0.98168427       1.06942521       0.00000000
Si      -0.26191062      -0.93745692       3.23002853       0.00000000
Si       0.80547534       3.00188862      -1.62642252       0.00000000
Si       0.56676168       1.32576165      -3.20656012       0.00000000
Si      -1.68158412      -3.26360376       0.23132166       0.00000000
Si      -2.93721732      -0.52100307      -2.15531949       0.00000000
Si       0.95545737       2.96769591       1.98877613       0.00000000
