10
Lattice="16.28999089631971 0.0 0.0 0.0 16.28999089631971 0.0 0.0 0.0 34.31052061344573" Properties=species:S:1:pos:R:3:initial_magmoms:R:1 pbc="T T T"
Si      -1.85912883      -0.23024286      -1.39434603       0.00000000
Si       0.56698974       2.29856626       0.27434708       0.00000000
Si       1.92163356      -0.98168427      -1.06942521       0.00000000
Si      -0.58901382      -1.42597773       1.89116264       0.00000000
Si       1.65972294      -1.91914119       2.16060331       0.00000000
Si       2.87709093       1.98601164       0.91935091       0.00000000
Si       2.11442571      -3.00200265       0.03983454       0.00000000
Si       2.53920375       0.39416913       2.63230461       0.00000000
Si      -1.01558376      -1.50268734      -3.22474470       0.00000000
Si       0.70641585       3.05925615      -1.99927515       0.00000000
