10
Lattice="16.28999089631971 0.0 0.0 0.0 16.28999089631971 0.0 0.0 0.0 34.31052061344573" Properties=species:S:1:pos:R:3:initial_magmoms:R:1 pbc="T T T"
Si       2.24873676      -0.49316346       0.26944067       0.00000000
Si       0.58901382       1.42597773      -1.89116264       0.00000000
Si      -0.67953735      -2.22581673      -0.75359670       0.00000000
Si      -0.99986391       1.17323838       1.95388231       0.00000000
Si       2.70343953      -1.57602492      -1.85132811       0.00000000
Si       3.12821757       1.82014686       0.74114197       0.00000000
Si      -1.27011501       1.19573487      -3.28550867       0.00000000
Si      -2.92548852      -1.75298319      -1.50661011       0.00000000
Si       2.36719764      -1.96620300       2.10626884       0.00000000
Si       2.51064738       0.44429346      -2.96058786       0.00000000
