10
Lattice="16.28999089631971 0.0 0.0 0.0 16.28999089631971 0.0 0.0 0.0 34.31052061344573" Properties=species:S:1:pos:R:3:initial_magmoms:R:1 pbc="T T T"
Si       1.34830701      -1.29327939       1.46060654       0.00000000
Si      -1.08177003      -1.50280137      -1.48546937       0.00000000
Si       1.80022323       0.90847701      -1.31621548       0.00000000
Si      -1.35267273       1.43809749       1.42605583       0.00000000
Si      -2.58201387      -2.68480214      -0.03966298       0.00000000
Si       2.73537837      -2.59972110       0.09044258       0.00000000
Si       0.83230497       1.76813289      -3.28111147       0.00000000
Si       0.00042354      -2.64772936       2.82552785       0.00000000
Si       2.85262891       2.65458582      -0.13917041       0.00000000
Si      -2.71744893       0.06775011       2.81650418       0.00000000
