10
Lattice="16.28999089631971 0.0 0.0 0.0 16.28999089631971 0.0 0.0 0.0 34.31052061344573" Properties=species:S:1:pos:R:3:initial_magmoms:R:1 pbc="T T T"
Si      -1.05240568      -1.74610881      -1.17704507       0.00000000
Si       1.21865653      -1.22790762       1.60543133       0.00000000
Si       1.83138859       0.77799411      -1.32567832       0.00000000
Si      -1.47537457       1.45523457       1.58881130       0.00000000
Si       2.53485595      -2.60283249       0.26187176       0.00000000
Si       2.53975924       2.61099378       0.12775873       0.00000000
Si       0.77107249      -3.37527171      -1.22120273       0.00000000
Si      -1.47719339       3.39180606      -0.87855911       0.00000000
Si      -2.02032394      -0.88645293      -3.14194106       0.00000000
Si      -2.85262891      -2.65458582       0.13917041       0.00000000
