10
Lattice="16.28999089631971 0.0 0.0 0.0 16.28999089631971 0.0 0.0 0.0 34.31052061344573" Properties=species:S:1:pos:R:3:initial_magmoms:R:1 pbc="T T T"
Si       2.11957335      -0.52276402       0.87138478       0.00000000
Si      -1.69670124      -1.41673055       0.83745166       0.00000000
Si       0.01011609      -0.52793284      -2.31369694       0.00000000
Si      -0.38659428       2.08843176       1.30349172       0.00000000
Si       2.45703699       0.54249447      -2.19865370       0.00000000
Si      -0.45543582       0.76855080       3.33230825       0.00000000
Si       1.38689802      -0.72208031       3.15893709       0.00000000
Si       2.79559762      -2.33123162      -0.53201923       0.00000000
Si       3.34874574       1.50070485       0.61474194       0.00000000
Si      -3.65299992      -0.78099147      -0.29191407       0.00000000
