10
Lattice="16.28999089631971 0.0 0.0 0.0 16.28999089631971 0.0 0.0 0.0 34.31052061344573" Properties=species:S:1:pos:R:3:initial_magmoms:R:1 pbc="T T T"
Si       1.36536264       1.33094187       1.39734477       0.00000000
Si      -1.36477620      -1.37034738       1.39044835       0.00000000
Si       1.35267273      -1.43809749      -1.42605583       0.00000000
Si      -1.02938139       1.89377766      -1.31661893       0.00000000
Si       2.72992707       2.67172290       0.02358507       0.00000000
Si       2.70097974      -2.73137688       0.03455071       0.00000000
Si      -2.70471015      -2.74349664       0.01365903       0.00000000
Si      -0.00241092       2.69949735       2.75103280       0.00000000
Si       2.71134986      -0.01479132       2.75607645       0.00000000
Si      -2.75105520       2.71790505       0.02683427       0.00000000
