10
Lattice="16.28999089631971 0.0 0.0 0.0 16.28999089631971 0.0 0.0 0.0 34.31052061344573" Properties=species:S:1:pos:R:3:initial_magmoms:R:1 pbc="T T T"
Si      -1.35392936      -1.35860229      -1.36902485       0.00000000
Si       1.31177343      -1.35078309       1.41997600       0.00000000
Si       1.36067601       1.35964485      -1.36535362       0.00000000
Si      -1.43042720       1.32532182       1.40837904       0.00000000
Si      -2.70344183       2.70299970      -0.02453204       0.00000000
Si      -2.71352534      -2.70941796      -0.00919522       0.00000000
Si      -2.71031621      -0.00206883      -2.72882016       0.00000000
Si       2.71505919      -2.72849355       0.01283214       0.00000000
Si       0.00354796       2.71394658      -2.73032982       0.00000000
Si       2.72778168       2.71639008       0.02786016       0.00000000
