10
Lattice="16.28999089631971 0.0 0.0 0.0 16.28999089631971 0.0 0.0 0.0 34.31052061344573" Properties=species:S:1:pos:R:3:initial_magmoms:R:1 pbc="T T T"
Si       1.35232968      -1.35426915      -1.35663874       0.00000000
Si      -1.35466011      -1.36521603       1.34915905       0.00000000
Si      -1.36023129       1.35798327      -1.35543787       0.00000000
Si       1.36104157       1.35226548       1.36154515       0.00000000
Si      -0.02138877       2.66756895       2.73808401       0.00000000
Si      -2.70907587      -0.03828150       2.69896999       0.00000000
Si       2.70945773      -2.70857088       0.00833746       0.00000000
Si       2.71152656       0.00239463      -2.71293438       0.00000000
Si      -0.00339541      -2.71241532      -2.71300300       0.00000000
Si      -2.71854036      -2.70967860       0.00408295       0.00000000
