10
Lattice="16.28999089631971 0.0 0.0 0.0 16.28999089631971 0.0 0.0 0.0 34.31052061344573" Properties=species:S:1:pos:R:3:initial_magmoms:R:1 pbc="T T T"
Si       0.72016461       1.52479287       1.70056759       0.00000000
Si      -2.27470302       0.00493587      -0.78348118       0.00000000
Si       1.86846204       1.18179063      -0.96714550       0.00000000
Si       1.34403807      -1.99308150       0.44113061       0.00000000
Si       0.90827438      -2.48749929      -1.94074137       0.00000000
Si       0.76735674       2.89805616      -2.10471144       0.00000000
Si      -0.35302059      -1.03752639      -3.51140926       0.00000000
Si      -3.24140049      -1.74050505       0.66850656       0.00000000
Si       0.78759458       0.55304550       3.78900010       0.00000000
Si       3.11087591       2.11317138       1.18395380       0.00000000
