10
Lattice="16.28999089631971 0.0 0.0 0.0 16.28999089631971 0.0 0.0 0.0 34.31052061344573" Properties=species:S:1:pos:R:3:initial_magmoms:R:1 pbc="T T T"
Si      -1.16916588       1.96178841       0.63359185       0.00000000
Si       0.22001274      -1.36384767       1.92692936       0.00000000
Si      -0.05149269      -0.94288149      -2.32073060       0.00000000
Si       2.18471706       0.41632353       2.10166265       0.00000000
Si      -2.95016787       0.79552215       1.75680398       0.00000000
Si      -1.50166107      -0.53972028       3.27038256       0.00000000
Si      -1.28762676       3.43482795      -1.20323632       0.00000000
Si       0.91520478       0.80255943      -3.77271833       0.00000000
Si       1.21656978      -3.07757196      -2.27969520       0.00000000
Si       0.02472822       3.58059087       1.89833839       0.00000000
