10
Lattice="16.28999089631971 0.0 0.0 0.0 16.28999089631971 0.0 0.0 0.0 34.31052061344573" Properties=species:S:1:pos:R:3:initial_magmoms:R:1 pbc="T T T"
Si      -0.69546897      -1.33822350      -1.80174938       0.00000000
Si       2.30448018      -0.56549106      -0.00140673       0.00000000
Si      -0.61841727      -0.86918553       2.12303327       0.00000000
Si       0.33283728       2.21311935      -0.81635067       0.00000000
Si       1.92662874       2.92475288       0.71986944       0.00000000
Si      -0.86307678      -3.17016432       1.53320078       0.00000000
Si      -2.92429935      -0.46551933       2.12118050       0.00000000
Si      -0.89537985      -3.47426604      -0.81851224       0.00000000
Si       0.98425809      -1.28031255      -3.37567677       0.00000000
Si       2.62717205      -1.97436429      -1.87874223       0.00000000
