10
Lattice="16.28999089631971 0.0 0.0 0.0 16.28999089631971 0.0 0.0 0.0 34.31052061344573" Properties=species:S:1:pos:R:3:initial_magmoms:R:1 pbc="T T T"
Si      -1.65887586      -1.65102408      -0.17021459       0.00000000
Si      -0.70341849       1.31667183       1.81856154       0.00000000
Si       2.16246492      -0.77111973       0.60156669       0.00000000
Si      -0.85340052       1.35086454      -1.79663711       0.00000000
Si      -1.09211418      -0.32526243      -3.37677470       0.00000000
Si      -3.01351968       1.62922645       1.17355770       0.00000000
Si       1.21376790      -0.72892863      -3.37492194       0.00000000
Si       0.54692046       3.35599154       1.40916818       0.00000000
Si      -1.04130567      -0.27517068       3.53151524       0.00000000
Si      -3.58050942      -0.66933981       0.89921063       0.00000000
