10
Lattice="16.28999089631971 0.0 0.0 0.0 16.28999089631971 0.0 0.0 0.0 34.31052061344573" Properties=species:S:1:pos:R:3:initial_magmoms:R:1 pbc="T T T"
Si       1.52775832       1.77243345      -0.10999959       0.00000000
Si      -2.16246492       0.77111973      -0.60156669       0.00000000
Si       0.22305897      -0.76365891       2.26579943       0.00000000
Si       1.16163990      -1.55650950      -1.43246504       0.00000000
Si      -2.86588341       2.08779156       1.21699485       0.00000000
Si       2.29066300       1.93738599      -2.25135469       0.00000000
Si       2.97526166      -0.29628252      -2.38557752       0.00000000
Si       2.21351519       0.56720151       3.12400896       0.00000000
Si       1.11444777      -2.92977279       2.37281400       0.00000000
Si       3.34271519       1.67340654       1.39252757       0.00000000
