10
Lattice="16.28999089631971 0.0 0.0 0.0 16.28999089631971 0.0 0.0 0.0 34.31052061344573" Properties=species:S:1:pos:R:3:initial_magmoms:R:1 pbc="T T T"
Si       0.48484416      -0.97850772       2.10937768       0.00000000
Si       0.59403603       2.31306597      -0.00367123       0.00000000
Si       1.83450324      -1.12606254      -1.07206713       0.00000000
Si      -2.02577783      -1.07748576      -0.73729919       0.00000000
Si      -0.91174315      -2.86966269       1.99536375       0.00000000
Si      -1.07558960      -3.01858587      -1.71679648       0.00000000
Si      -0.56098199       3.07014372       1.86903234       0.00000000
Si       2.92984284       2.21359923      -0.17313098       0.00000000
Si       2.88211314      -0.93214638       2.11068148       0.00000000
Si      -2.97022316      -1.89369621       1.31725024       0.00000000
