10
Lattice="16.28999089631971 0.0 0.0 0.0 16.28999089631971 0.0 0.0 0.0 34.31052061344573" Properties=species:S:1:pos:R:3:initial_magmoms:R:1 pbc="T T T"
Si       0.31547214      -0.37419759       2.38293561       0.00000000
Si      -2.43666634      -0.30651264      -0.51781467       0.00000000
Si       1.12277196       2.20454199       0.59144508       0.00000000
Si       1.11348666      -1.27135305      -2.11531340       0.00000000
Si      -0.64285227      -0.30261933      -3.39907656       0.00000000
Si      -0.66982851       3.79974024       0.22500852       0.00000000
Si      -1.91224237       2.86835949      -1.92609077       0.00000000
Si       2.19357882      -2.15606295       2.65020000       0.00000000
Si      -3.53624039      -2.03864463       0.56667288       0.00000000
Si      -2.87243004      -0.80093043      -2.89968665       0.00000000
