10
Lattice="16.28999089631971 0.0 0.0 0.0 16.28999089631971 0.0 0.0 0.0 34.31052061344573" Properties=species:S:1:pos:R:3:initial_magmoms:R:1 pbc="T T T"
Si      -1.35232968       1.35426915       1.35663874       0.00000000
Si      -1.35572509      -1.35814617      -1.35636426       0.00000000
Si       1.35919687       1.35666378      -1.35629564       0.00000000
Si       1.35712805      -1.35430173       1.36497620       0.00000000
Si      -2.70698979      -0.01094688       2.70579779       0.00000000
Si       0.00871189       2.70653463       2.71818389       0.00000000
Si      -2.71256097       2.71225242       0.00120087       0.00000000
Si      -2.71368498      -0.00030951      -2.71375783       0.00000000
Si       0.00221707       2.71423980      -2.71338042       0.00000000
Si      -2.71386417      -2.71601541       0.00150966       0.00000000
