10
Lattice="16.28999089631971 0.0 0.0 0.0 16.28999089631971 0.0 0.0 0.0 34.31052061344573" Properties=species:S:1:pos:R:3:initial_magmoms:R:1 pbc="T T T"
Si      -1.30393305       1.33506324       1.35399683       0.00000000
Si       1.34614044       1.36700793      -1.34970801       0.00000000
Si      -1.37298636      -1.34493498      -1.34836990       0.00000000
Si       1.17133245      -1.32701598       1.57842207       0.00000000
Si      -2.33196237      -0.36129591       2.60506204       0.00000000
Si       0.32296554       1.94924578       3.02299873       0.00000000
Si      -0.69010956      -2.13442983       2.90339219       0.00000000
Si       2.16323055       0.35870580       2.94315810       0.00000000
Si       2.67812487      -2.68850160       0.03623193       0.00000000
Si       2.69865027       0.01176138      -2.70521451       0.00000000
