10
Lattice="16.28999089631971 0.0 0.0 0.0 16.28999089631971 0.0 0.0 0.0 34.31052061344573" Properties=species:S:1:pos:R:3:initial_magmoms:R:1 pbc="T T T"
Si      -0.70323930      -1.84005324      -1.34514471       0.00000000
Si       1.86144201       0.80741385      -1.32497011       0.00000000
Si      -1.64185281       1.77313392      -0.29833014       0.00000000
Si      -0.77745654       0.09728388       2.55757626       0.00000000
Si       1.59860286      -0.03986163       2.65374870       0.00000000
Si      -2.03264502      -0.57648681      -2.89062867       0.00000000
Si       0.69010956       2.13442983      -2.90339219       0.00000000
Si       2.85334011       2.49313563       0.03976592       0.00000000
Si      -3.41507537       0.73881666      -1.51408981       0.00000000
Si      -0.61382349       3.46949307      -1.54939536       0.00000000
