10
Lattice="16.28999089631971 0.0 0.0 0.0 16.28999089631971 0.0 0.0 0.0 34.31052061344573" Properties=species:S:1:pos:R:3:initial_magmoms:R:1 pbc="T T T"
Si       1.11590572      -1.33972218       1.50993823       0.00000000
Si       0.32269187      -1.40887323      -1.87733550       0.00000000
Si      -2.30448018       0.56549106       0.00140673       0.00000000
Si       1.37110486       2.00002321       0.16479352       0.00000000
Si       1.87487311       2.03160248      -2.13689473       0.00000000
Si      -1.97164290       2.77861041      -0.81494394       0.00000000
Si       2.14895236      -0.27306927      -2.77112506       0.00000000
Si       3.29772316      -1.14802146       0.62802012       0.00000000
Si      -2.99994915      -0.77273244      -1.80034264       0.00000000
Si      -0.37785144       3.49024394       0.72127617       0.00000000
