10
Lattice="16.28999089631971 0.0 0.0 0.0 16.28999089631971 0.0 0.0 0.0 34.279985188174585" Properties=species:S:1:pos:R:3:initial_magmoms:R:1 pbc="T T T"
Si      -1.23140508      -1.56654318      -1.14141925       0.00000000
Si       1.28640990      -1.37568121       1.32504900       0.00000000
Si      -1.44502304       1.37112116       1.27894583       0.00000000
Si       1.78677354       0.60619163      -1.44491388       0.00000000
Si       0.68504826       0.03393859      -3.55268850       0.00000000
Si       2.55000891       2.58404197      -0.14352695       0.00000000
Si      -1.62846473      -0.67695050      -3.23772383       0.00000000
Si       2.63893602      -0.00134393       2.66969589       0.00000000
Si       2.66991960      -2.68020903      -0.09168530       0.00000000
Si      -0.07959946       2.71460633       2.66311413       0.00000000
