10
Lattice="16.28999089631971 0.0 0.0 0.0 16.28999089631971 0.0 0.0 0.0 34.279985188174585" Properties=species:S:1:pos:R:3:initial_magmoms:R:1 pbc="T T T"
Si       0.19761399       2.07461295       1.01283701       0.00000000
Si      -0.88407459       0.47358288      -2.11010567       0.00000000
Si       2.10232224      -0.96725133      -0.36340233       0.00000000
Si      -1.17321883      -1.39846392       1.50321247       0.00000000
Si       2.27944341      -2.22270534       1.66525405       0.00000000
Si      -0.09681147      -1.30645800      -3.39365187       0.00000000
Si      -1.88658562       3.05427467       0.66660896       0.00000000
Si       0.61353027       1.63942560       3.27415178       0.00000000
Si       1.96804377      -1.95460452      -2.46946295       0.00000000
Si      -0.18999027       2.61177637      -2.79933943       0.00000000
