10
Lattice="16.28999089631971 0.0 0.0 0.0 16.28999089631971 0.0 0.0 0.0 34.279985188174585" Properties=species:S:1:pos:R:3:initial_magmoms:R:1 pbc="T T T"
Si      -1.39216132      -1.23022080       1.42415734       0.00000000
Si       1.17432981      -1.72872738      -1.11173482       0.00000000
Si       1.37078721       1.52547705       1.41791495       0.00000000
Si      -1.08224244       0.52733988      -2.37440450       0.00000000
Si      -2.62666232      -2.25810351      -0.37725145       0.00000000
Si      -0.61952499      -3.23250615      -1.56464224       0.00000000
Si      -2.53053747       2.63914290       0.36818100       0.00000000
Si       0.50601627       2.25471519      -2.89546057       0.00000000
Si      -0.00384444      -2.60055189       2.78813814       0.00000000
Si       2.70681156       0.12802311       2.80236777       0.00000000
