10
Lattice="16.28999089631971 0.0 0.0 0.0 16.28999089631971 0.0 0.0 0.0 34.279985188174585" Properties=species:S:1:pos:R:3:initial_magmoms:R:1 pbc="T T T"
Si       1.35431802      -1.35782037       1.35837945       0.00000000
Si      -1.35778779       1.35518139       1.35834517       0.00000000
Si      -1.37178090      -1.35405738      -1.35567133       0.00000000
Si       1.35697329       1.35252612      -1.37587597       0.00000000
Si       2.71420722       2.71145421      -0.00003428       0.00000000
Si      -2.71287144       2.71352304      -0.00524484       0.00000000
Si       2.71288773      -2.71373481      -0.00394220       0.00000000
Si       2.71363707      -0.00081450       2.71494206       0.00000000
Si      -0.00123804       2.71440270       2.71490778       0.00000000
Si      -2.71577106      -2.71469592       0.00311948       0.00000000
