10
Lattice="16.28999089631971 0.0 0.0 0.0 16.28999089631971 0.0 0.0 0.0 34.279985188174585" Properties=species:S:1:pos:R:3:initial_magmoms:R:1 pbc="T T T"
Si       0.38564946      -2.28725351       0.32134076       0.00000000
Si       1.95273117       0.33111054      -1.30572537       0.00000000
Si       0.64490481       0.93731031       2.09954743       0.00000000
Si      -2.42124786       0.33892974      -0.05885877       0.00000000
Si       1.50244299       2.56657095      -1.71725682       0.00000000
Si      -2.89688328      -1.95808732      -0.31198232       0.00000000
Si       2.47920768      -2.26622312       1.35015225       0.00000000
Si       3.62620287      -0.44105175       0.27187471       0.00000000
Si      -1.10987028       2.43750528       2.53795440       0.00000000
Si      -1.51045767      -3.08712509       1.37284561       0.00000000
