10
Lattice="16.28999089631971 0.0 0.0 0.0 16.28999089631971 0.0 0.0 0.0 34.279985188174585" Properties=species:S:1:pos:R:3:initial_magmoms:R:1 pbc="T T T"
Si       1.96465545       1.19946528       0.42205541       0.00000000
Si      -1.38142458       1.96415046       0.08360893       0.00000000
Si      -0.34075422      -1.79486315       1.57574896       0.00000000
Si       0.65327787      -0.89911026      -2.17475776       0.00000000
Si       3.71943054      -0.30072969      -0.01635156       0.00000000
Si       1.94867496       2.98618506      -1.12332146       0.00000000
Si       1.86049719       1.86453711       2.67438882       0.00000000
Si       1.50177510      -3.18188172       1.31131301       0.00000000
Si      -2.17202715      -2.98967764       0.72982129       0.00000000
Si      -0.34946937       3.56483844      -1.34099949       0.00000000
