10
Lattice="16.28999089631971 0.0 0.0 0.0 16.28999089631971 0.0 0.0 0.0 34.279985188174585" Properties=species:S:1:pos:R:3:initial_magmoms:R:1 pbc="T T T"
Si       1.54728936      -1.70978441      -0.12008286       0.00000000
Si       0.45820512       1.34782320       1.85667360       0.00000000
Si       0.21732489       1.65708885      -1.65719825       0.00000000
Si      -2.00033055      -1.22406318      -0.32953368       0.00000000
Si      -1.74104262       1.90249770       2.36336634       0.00000000
Si       2.05162776      -1.54644458      -2.40659343       0.00000000
Si      -1.75990644      -2.91232850       1.29955496       0.00000000
Si      -1.53745020       3.15728382      -1.21879127       0.00000000
Si       0.43723989      -3.65246465       0.74733837       0.00000000
Si       2.15479233       2.89982037      -1.06045193       0.00000000
