10
Lattice="16.28999089631971 0.0 0.0 0.0 16.28999089631971 0.0 0.0 0.0 34.279985188174585" Properties=species:S:1:pos:R:3:initial_magmoms:R:1 pbc="T T T"
Si      -1.84252932       1.38701857       0.26443595       0.00000000
Si       0.06229296      -1.14328337      -2.05436638       0.00000000
Si       0.24042411      -1.68826532       1.62908865       0.00000000
Si       2.00033055       1.22406318       0.32953368       0.00000000
Si      -1.58350203       1.34504738       2.67418314       0.00000000
Si       3.54761991      -0.48572123       0.20945083       0.00000000
Si       2.43757044      -2.42840147       1.07687206       0.00000000
Si       1.95840009      -0.34341179      -3.10587123       0.00000000
Si      -0.09492183      -0.53382560       3.67824447       0.00000000
Si      -3.67380225       0.19220408      -0.58149171       0.00000000
