10
Lattice="16.28999089631971 0.0 0.0 0.0 16.28999089631971 0.0 0.0 0.0 34.279985188174585" Properties=species:S:1:pos:R:3:initial_magmoms:R:1 pbc="T T T"
Si      -0.98842833      -1.62937860       1.43306671       0.00000000
Si       1.62487863       1.01184032       1.46992114       0.00000000
Si      -1.87157439       1.65702206       0.07983813       0.00000000
Si       1.98288396      -1.82546133      -1.83116927       0.00000000
Si      -1.85319927      -0.90014046      -2.88030881       0.00000000
Si      -2.37193803      -0.32485078       2.84980101       0.00000000
Si       0.32457825       2.41012505       2.83565708       0.00000000
Si      -2.97329967       1.08476902      -2.02793650       0.00000000
Si       2.48603319       2.86531652       0.28452099       0.00000000
Si      -2.35921554      -3.15485565       0.01515176       0.00000000
