10
Lattice="16.28999089631971 0.0 0.0 0.0 16.28999089631971 0.0 0.0 0.0 34.279985188174585" Properties=species:S:1:pos:R:3:initial_magmoms:R:1 pbc="T T T"
Si      -0.40257477       2.26463580       0.46212874       0.00000000
Si      -0.60823602       0.14014287      -2.27482109       0.00000000
Si      -1.03195521      -1.60068798       1.42460842       0.00000000
Si       2.29814433      -0.57865338       0.21767803       0.00000000
Si       0.84233961      -1.52298468      -3.18701200       0.00000000
Si       0.75935835       3.33966177      -1.28508880       0.00000000
Si       2.84545575      -1.19637018      -1.99245669       0.00000000
Si      -1.05026517      -0.48492072       3.56320077       0.00000000
Si       2.31412482      -2.36537316       1.76305490       0.00000000
Si       0.34946937      -3.56483844       1.34099949       0.00000000
