10
Lattice="16.28999089631971 0.0 0.0 0.0 16.28999089631971 0.0 0.0 0.0 34.279985188174585" Properties=species:S:1:pos:R:3:initial_magmoms:R:1 pbc="T T T"
Si       0.54731142      -0.61771680      -2.21013472       0.00000000
Si       0.01598049      -1.78671978       1.54537688       0.00000000
Si       1.67622471       1.44243063       0.85065831       0.00000000
Si      -2.29814433       0.57865338      -0.21767803       0.00000000
Si      -3.33009954      -1.02203460       1.20693039       0.00000000
Si       3.65052384       0.09386298       0.73568317       0.00000000
Si      -1.94867496      -2.98618506       1.12332146       0.00000000
Si       0.89404407       1.37197638      -3.41963611       0.00000000
Si      -1.45580472      -0.94433130      -3.40469003       0.00000000
Si       1.77075558      -3.28691475       1.10696990       0.00000000
