10
Lattice="16.28999089631971 0.0 0.0 0.0 16.28999089631971 0.0 0.0 0.0 34.279985188174585" Properties=species:S:1:pos:R:3:initial_magmoms:R:1 pbc="T T T"
Si      -1.81408698      -0.84390345       1.29861025       0.00000000
Si       1.78028523      -1.61345934       0.20190618       0.00000000
Si       0.97471215       1.88291223       1.22095233       0.00000000
Si      -1.20739851      -0.40526262      -2.35853286       0.00000000
Si      -0.38116971      -2.06865081       2.75304227       0.00000000
Si       2.34758448       0.63793269       2.73283764       0.00000000
Si      -2.57732235      -2.82175380      -0.00277668       0.00000000
Si       0.69949260      -0.23758965      -3.76912076       0.00000000
Si       0.91913067      -3.46693554       1.38730633       0.00000000
Si      -2.31822990       1.88229321      -2.46072155       0.00000000
