10
Lattice="16.28999089631971 0.0 0.0 0.0 16.28999089631971 0.0 0.0 0.0 34.279985188174585" Properties=species:S:1:pos:R:3:initial_magmoms:R:1 pbc="T T T"
Si       1.34876313       1.36966320      -1.35287751       0.00000000
Si      -1.35723393       1.35702216       1.36036769       0.00000000
Si       1.36034532      -1.35741312       1.36108757       0.00000000
Si      -1.35185823      -1.37529954      -1.38434656       0.00000000
Si       2.67270030      -0.07082892      -2.63413038       0.00000000
Si      -2.71083519      -2.71564074      -0.00212536       0.00000000
Si      -2.71503801       2.71360449       0.00027424       0.00000000
Si      -2.71430496       0.00009774       2.71778730       0.00000000
Si       0.00079821      -2.71476108       2.71802726       0.00000000
Si       0.00125433       2.71477737       2.71806154       0.00000000
