10
Lattice="16.28999089631971 0.0 0.0 0.0 16.28999089631971 0.0 0.0 0.0 34.279985188174585" Properties=species:S:1:pos:R:3:initial_magmoms:R:1 pbc="T T T"
Si       1.35707103       1.35692442      -1.35741961       0.00000000
Si      -1.35733167       1.35723393       1.35786525       0.00000000
Si      -1.35791811      -1.35790182      -1.35711109       0.00000000
Si       1.35767376      -1.35769005       1.35762529       0.00000000
Si       0.00000000       2.71419093       2.71435930       0.00000000
Si       2.71476108      -0.00029322       2.71477066       0.00000000
Si      -2.71486859       2.71477737       0.00034280       0.00000000
Si      -2.71494679      -2.71497285      -0.00013712       0.00000000
Si       2.71510317      -2.71485882       0.00023996       0.00000000
Si       2.71555929       2.71467963       0.00027424       0.00000000
