10
Lattice="16.28999089631971 0.0 0.0 0.0 16.28999089631971 0.0 0.0 0.0 34.279985188174585" Properties=species:S:1:pos:R:3:initial_magmoms:R:1 pbc="T T T"
Si      -1.35707103      -1.35692442       1.35741961       0.00000000
Si       1.35848826       1.35775521       1.35769385       0.00000000
Si      -1.35780408       1.35658233      -1.36009345       0.00000000
Si       1.35723393      -1.35702216      -1.36036769       0.00000000
Si       2.70599706       0.01264104      -2.71324520       0.00000000
Si       2.71489140       2.71425609       0.00085700       0.00000000
Si       0.00060273      -2.71461447       2.71504490       0.00000000
Si      -2.71440270       0.00030951       2.71528486       0.00000000
Si      -2.71498914      -2.71482624       0.00030852       0.00000000
Si       2.71552671       0.00053757       2.71490778       0.00000000
