10
Lattice="16.28999089631971 0.0 0.0 0.0 16.28999089631971 0.0 0.0 0.0 34.279985188174585" Properties=species:S:1:pos:R:3:initial_magmoms:R:1 pbc="T T T"
Si      -0.75701259       0.39211659       2.16101147       0.00000000
Si      -1.65110553      -0.79345332      -1.45011274       0.00000000
Si       1.44073647       1.66283433      -0.78693178       0.00000000
Si       1.98115722      -1.31025357      -0.13715430       0.00000000
Si      -0.83313576      -1.89224640       2.89343805       0.00000000
Si      -3.02362762      -1.98032643       0.04936321       0.00000000
Si      -0.45027189      -2.23472736      -2.93018621       0.00000000
Si       2.30167926       0.71315991      -2.88983865       0.00000000
Si       2.96728866      -1.23906627       1.96630105       0.00000000
Si       2.70246213       2.29855158       1.32975565       0.00000000
