10
Lattice="16.28999089631971 0.0 0.0 0.0 16.28999089631971 0.0 0.0 0.0 34.279985188174585" Properties=species:S:1:pos:R:3:initial_magmoms:R:1 pbc="T T T"
Si       1.83127293       1.19481448       0.84592767       0.00000000
Si      -0.69408432      -2.13819349       0.68923377       0.00000000
Si      -1.74911269       1.16764602       1.15643595       0.00000000
Si       0.20153988      -0.61895551      -2.33827338       0.00000000
Si      -3.63616325       0.31787654      -0.04189017       0.00000000
Si      -3.05311157      -2.02942516       0.42472925       0.00000000
Si       3.67380225      -0.19220408       0.58149171       0.00000000
Si       2.17202715       2.98967764      -0.72982129       0.00000000
Si       0.18999027      -2.61177637       2.79933943       0.00000000
Si       0.38760426      -0.53716342       3.81217644       0.00000000
