10
Lattice="16.28999089631971 0.0 0.0 0.0 16.28999089631971 0.0 0.0 0.0 34.279985188174585" Properties=species:S:1:pos:R:3:initial_magmoms:R:1 pbc="T T T"
Si      -0.40303089       1.81183896      -1.44723322       0.00000000
Si      -1.63864368      -1.69280793      -0.39302025       0.00000000
Si       1.80270027      -1.40344866      -0.75364590       0.00000000
Si       0.55216584       1.15681806       2.12906251       0.00000000
Si       1.89488538       2.49632847      -1.49652787       0.00000000
Si      -1.02496680       0.57963078      -3.42193287       0.00000000
Si      -1.94774643      -1.47124764      -2.76187139       0.00000000
Si       1.56142908      -3.29826888       0.62770116       0.00000000
Si       1.40452380      -2.06698923      -2.98030358       0.00000000
Si      -0.55399032      -3.86822340      -0.23869167       0.00000000
