10
Lattice="16.28999089631971 0.0 0.0 0.0 16.28999089631971 0.0 0.0 0.0 34.279985188174585" Properties=species:S:1:pos:R:3:initial_magmoms:R:1 pbc="T T T"
Si       1.35607734      -1.35593073       1.36074477       0.00000000
Si      -1.34830701      -1.35739683      -1.37116932       0.00000000
Si      -1.35918873       1.36134451       1.36139609       0.00000000
Si       1.37373570       1.34941294      -1.38564234       0.00000000
Si      -0.07102440       2.68127603      -2.71876771       0.00000000
Si       2.71687878      -2.71101438       0.00339372       0.00000000
Si      -0.00032580      -2.71243161       2.71758162       0.00000000
Si      -2.71661814      -2.71360449      -0.00020568       0.00000000
Si       2.71414206       0.00236205       2.71751306       0.00000000
Si       2.71334385       2.71988333      -0.00130264       0.00000000
