10
Lattice="16.28999089631971 0.0 0.0 0.0 16.28999089631971 0.0 0.0 0.0 34.279985188174585" Properties=species:S:1:pos:R:3:initial_magmoms:R:1 pbc="T T T"
Si       1.89610713       0.79987158      -1.05150485       0.00000000
Si      -0.06229296       1.14328337       2.05436638       0.00000000
Si       0.05642856      -2.38413924       0.26453879       0.00000000
Si      -1.38642561       1.12903776      -1.68482793       0.00000000
Si      -1.09849986      -2.70472644      -1.70436754       0.00000000
Si       2.13951231      -0.71588034      -2.81178308       0.00000000
Si       1.51045767       3.08712509      -1.37284561       0.00000000
Si      -3.53455533       0.71653194      -0.86539871       0.00000000
Si       0.17813115      -0.54498195       3.68345503       0.00000000
Si      -3.14009298      -1.62131112      -1.20343383       0.00000000
