10
Lattice="16.28999089631971 0.0 0.0 0.0 16.28999089631971 0.0 0.0 0.0 34.279985188174585" Properties=species:S:1:pos:R:3:initial_magmoms:R:1 pbc="T T T"
Si      -1.35856971       1.35591444       1.36232165       0.00000000
Si       1.35814617      -1.35975893       1.36064193       0.00000000
Si      -1.33960815      -1.37047039      -1.38433970       0.00000000
Si       1.36671471       1.33944525      -1.39469226       0.00000000
Si      -2.71288773       2.71373481       0.00394220       0.00000000
Si       2.71583622       2.71241532       0.00013712       0.00000000
Si       2.71415835      -2.71613663       0.00380508       0.00000000
Si       0.00074934       2.71292031       2.71888426       0.00000000
Si      -2.71334385      -2.71988333       0.00130264       0.00000000
Si      -2.71461447      -0.00208186       2.71943274       0.00000000
