10
Lattice="16.28999089631971 0.0 0.0 0.0 16.28999089631971 0.0 0.0 0.0 34.279985188174585" Properties=species:S:1:pos:R:3:initial_magmoms:R:1 pbc="T T T"
Si      -1.96574688       0.79940080      -0.96851296       0.00000000
Si      -0.52939242      -2.28971167       0.08515153       0.00000000
Si      -0.05240493       0.93786580       2.17016424       0.00000000
Si       2.00518497       0.16420483      -1.41298750       0.00000000
Si       1.33534017      -1.74046174      -2.66838982       0.00000000
Si       1.29269295      -3.26914792      -0.88168171       0.00000000
Si      -0.50269311       3.17332621       1.75863278       0.00000000
Si       3.67132617       0.20108539       0.45201614       0.00000000
Si      -2.46167964      -0.61791065      -2.83303668       0.00000000
Si      -0.24239520      -0.42321909      -3.80220096       0.00000000
