10
Lattice="16.28999089631971 0.0 0.0 0.0 16.28999089631971 0.0 0.0 0.0 34.279985188174585" Properties=species:S:1:pos:R:3:initial_magmoms:R:1 pbc="T T T"
Si      -1.89820854       1.20246264       0.73393489       0.00000000
Si      -0.85437792      -1.41863094      -1.69048413       0.00000000
Si       0.88571988      -1.43506755       1.68417661       0.00000000
Si       1.66599459       1.56893877      -0.68525729       0.00000000
Si       0.73976148       2.23184403      -2.80314452       0.00000000
Si       1.13718861      -2.26254742      -2.70973150       0.00000000
Si      -3.83567598      -0.04026888       0.13718858       0.00000000
Si       1.23655761      -0.16278597       3.64955210       0.00000000
Si      -2.00137311      -3.24380231      -0.61220660       0.00000000
Si      -1.95590772       3.34050885      -0.23409815       0.00000000
