10
Lattice="16.28999089631971 0.0 0.0 0.0 16.28999089631971 0.0 0.0 0.0 34.279985188174585" Properties=species:S:1:pos:R:3:initial_magmoms:R:1 pbc="T T T"
Si      -0.09780516       2.29201929       0.52318143       0.00000000
Si      -0.46801170      -0.69830343       2.23543336       0.00000000
Si      -1.73881089      -0.95744475      -1.35238045       0.00000000
Si       1.68062301       0.33510159      -1.86075292       0.00000000
Si      -0.02344131       1.31152419      -3.23983749       0.00000000
Si      -2.20226139       2.33132706       1.52563159       0.00000000
Si       1.01701728       0.57296817       3.46632548       0.00000000
Si      -1.93106547      -3.07222884      -0.49171238       0.00000000
Si       1.34112312       2.57878845       2.33422834       0.00000000
Si      -3.68948952       0.04210965      -0.58296575       0.00000000
