10
Lattice="16.28999089631971 0.0 0.0 0.0 16.28999089631971 0.0 0.0 0.0 34.279985188174585" Properties=species:S:1:pos:R:3:initial_magmoms:R:1 pbc="T T T"
Si      -0.11220552       0.56549106       2.27153021       0.00000000
Si       0.35759808       1.96408530      -1.27134252       0.00000000
Si      -1.67622471      -1.44243063      -0.85065831       0.00000000
Si       1.97429913      -1.34856765      -0.11497513       0.00000000
Si      -1.66024422      -3.22915041       0.69471857       0.00000000
Si       2.56559355       1.95906798      -2.01761822       0.00000000
Si      -1.09286352       1.90428471      -3.11824632       0.00000000
Si       0.22354767      -1.44808326       3.52816661       0.00000000
Si       2.43709803      -1.82881314      -2.32960054       0.00000000
Si       3.75833106      -0.09151722       0.81822942       0.00000000
