10
Lattice="16.28999089631971 0.0 0.0 0.0 16.28999089631971 0.0 0.0 0.0 34.279985188174585" Properties=species:S:1:pos:R:3:initial_magmoms:R:1 pbc="T T T"
Si       1.36060596       1.35237951      -1.37027461       0.00000000
Si      -1.35843939      -1.35992178      -1.37233141       0.00000000
Si       1.33595919      -1.31370705       1.45967687       0.00000000
Si      -1.34342001       1.41890787       1.39121970       0.00000000
Si      -2.71577106      -2.70529659      -0.00880996       0.00000000
Si       2.72894967       2.69373069       0.01155236       0.00000000
Si       2.71176372      -2.71976211       0.02135644       0.00000000
Si      -2.72494233       2.70969489      -0.00671888       0.00000000
Si       0.00086337       2.70951570      -2.73023095       0.00000000
Si      -2.71334385      -0.00470781      -2.73105367       0.00000000
