10
Lattice="16.28999089631971 0.0 0.0 0.0 16.28999089631971 0.0 0.0 0.0 34.279985188174585" Properties=species:S:1:pos:R:3:initial_magmoms:R:1 pbc="T T T"
Si      -1.33595919       1.31370705      -1.45967687       0.00000000
Si      -1.20723561      -1.48390497       1.47643979       0.00000000
Si       1.37580453      -1.40605506      -1.43832042       0.00000000
Si       1.40268303       1.43817894       1.58901532       0.00000000
Si       2.13175827      -0.62692065       2.78257651       0.00000000
Si      -2.50766631       0.18596664       2.77325235       0.00000000
Si      -2.62713717      -2.67936291      -0.10997025       0.00000000
Si       0.49682871      -2.46032757       2.85552436       0.00000000
Si      -2.67937920       2.73261492      -0.06845717       0.00000000
Si       0.02464677       2.66608656      -2.82995148       0.00000000
