10
Lattice="16.28999089631971 0.0 0.0 0.0 16.28999089631971 0.0 0.0 0.0 34.279985188174585" Properties=species:S:1:pos:R:3:initial_magmoms:R:1 pbc="T T T"
Si       2.20799547      -0.00501732      -0.74627569       0.00000000
Si      -1.45046160      -0.05980059      -1.84690379       0.00000000
Si      -0.22553505       2.21617305       0.75035502       0.00000000
Si      -0.35759808      -1.96408530       1.27134252       0.00000000
Si       2.10057921       1.68984315      -2.31462017       0.00000000
Si       1.08771588       3.30514326      -0.92946804       0.00000000
Si       2.40360579      -1.78707816      -2.19035516       0.00000000
Si      -3.57260877       0.51179922      -1.08208262       0.00000000
Si       0.87361641       2.42494569       2.78432479       0.00000000
Si      -1.13977872      -2.03453955      -2.99895190       0.00000000
