10
Lattice="16.28999089631971 0.0 0.0 0.0 16.28999089631971 0.0 0.0 0.0 34.279985188174585" Properties=species:S:1:pos:R:3:initial_magmoms:R:1 pbc="T T T"
Si      -1.11762432       1.21122666       1.65284713       0.00000000
Si       1.50503310      -1.42943121       1.22043671       0.00000000
Si      -1.10589552       0.36360909      -2.21383696       0.00000000
Si       1.97081307      -2.47564017      -1.02617193       0.00000000
Si       2.87151975      -0.47614041      -1.87381360       0.00000000
Si      -2.86982559       1.99081719       0.28630660       0.00000000
Si       2.36328804       1.82992086      -2.18295068       0.00000000
Si       0.37059750       1.77727158      -3.35426415       0.00000000
Si      -0.98903106      -1.63699839      -3.42039027       0.00000000
Si       0.24210198      -2.66191632       2.90354520       0.00000000
