10
Lattice="16.28999089631971 0.0 0.0 0.0 16.28999089631971 0.0 0.0 0.0 34.279985188174585" Properties=species:S:1:pos:R:3:initial_magmoms:R:1 pbc="T T T"
Si       1.27263996      -1.31310432       1.56113882       0.00000000
Si      -1.41434667      -1.42498404      -1.34173106       0.00000000
Si       1.90412181       0.74951919      -1.43925768       0.00000000
Si      -1.41182172       1.38995875       1.54612418       0.00000000
Si       2.66981697       2.61296880       0.00324632       0.00000000
Si       2.61133587      -2.71707426       0.21299195       0.00000000
Si      -2.73277782      -2.64673404       0.14237514       0.00000000
Si       2.64194478       0.04429251       2.93426896       0.00000000
Si      -2.85658182       2.72182184       0.21299881       0.00000000
Si      -0.06867864      -2.67046857       2.93516024       0.00000000
