10
Lattice="16.28999089631971 0.0 0.0 0.0 16.28999089631971 0.0 0.0 0.0 34.279985188174585" Properties=species:S:1:pos:R:3:initial_magmoms:R:1 pbc="T T T"
Si      -1.35637056      -1.35646830      -1.35810521       0.00000000
Si       1.35860229       1.35834165      -1.35796809       0.00000000
Si      -1.35633798       1.36050822       1.35992205       0.00000000
Si       1.35974259      -1.35713619       1.35995633       0.00000000
Si      -2.71420722      -2.71422351      -0.00082272       0.00000000
Si      -2.71340901       0.00074934      -2.71531914       0.00000000
Si       2.71441899      -2.71451673       0.00000000       0.00000000
Si       0.00110772      -2.71402803      -2.71538770       0.00000000
Si      -2.71360449       2.71591767      -0.00023996       0.00000000
Si       0.00768888       2.72109789       2.70887450       0.00000000
