10
Lattice="16.28999089631971 0.0 0.0 0.0 16.28999089631971 0.0 0.0 0.0 34.279985188174585" Properties=species:S:1:pos:R:3:initial_magmoms:R:1 pbc="T T T"
Si      -1.82208537       0.97943625       0.96683324       0.00000000
Si       0.04264722       1.52868618      -1.78670811       0.00000000
Si      -0.78092631      -2.05765506      -0.92381184       0.00000000
Si       1.86605208      -0.49234896       1.47571991       0.00000000
Si       2.77376346      -1.04366772      -1.46207647       0.00000000
Si       1.52415756       0.30086001      -3.06833463       0.00000000
Si       1.44324513      -3.01514868      -0.93628976       0.00000000
Si       0.71249202       3.43335275      -0.53130579       0.00000000
Si       1.70193033      -2.84706846       1.43125874       0.00000000
Si      -1.29269295       3.26914792       0.88168171       0.00000000
