10
Lattice="16.28999089631971 0.0 0.0 0.0 16.28999089631971 0.0 0.0 0.0 34.279985188174585" Properties=species:S:1:pos:R:3:initial_magmoms:R:1 pbc="T T T"
Si       0.27671823      -1.35562122      -1.87350508       0.00000000
Si      -1.06285734       2.06973965      -0.14356466       0.00000000
Si       2.29654791       0.42352371       0.07545029       0.00000000
Si      -1.89209979       0.17409123       1.50835447       0.00000000
Si       2.59621875      -1.14578973      -1.68863301       0.00000000
Si      -2.95282314       1.34573319      -1.35454009       0.00000000
Si      -0.80786997      -1.13541300       3.25471501       0.00000000
Si       2.44797975       2.19345569      -1.44476506       0.00000000
Si       0.59523660       3.50108657      -0.99130917       0.00000000
Si       0.13991481      -3.09332439       2.13225055       0.00000000
