10
Lattice="16.28999089631971 0.0 0.0 0.0 16.28999089631971 0.0 0.0 0.0 34.279985188174585" Properties=species:S:1:pos:R:3:initial_magmoms:R:1 pbc="T T T"
Si       1.11780351      -1.46718412      -1.47373167       0.00000000
Si      -1.31852889      -1.54498516       1.23442296       0.00000000
Si      -1.60104636       1.26121236      -1.43873178       0.00000000
Si       1.71305640       0.60966612       1.75928410       0.00000000
Si       2.47334669       2.42210944       0.19556742       0.00000000
Si       2.47906125      -2.77183393      -0.01501464       0.00000000
Si       2.46920051      -0.10724605      -2.84071540       0.00000000
Si      -2.80003923      -0.31715899       2.51604948       0.00000000
Si      -0.24676092       2.61376129      -2.83859004       0.00000000
Si       3.54537419      -1.08510217       1.36945189       0.00000000
