10
Lattice="16.28999089631971 0.0 0.0 0.0 16.28999089631971 0.0 0.0 0.0 34.279985188174585" Properties=species:S:1:pos:R:3:initial_magmoms:R:1 pbc="T T T"
Si       1.35702216      -1.35716877      -1.35995633       0.00000000
Si       1.36018242       1.35241209       1.36269873       0.00000000
Si      -1.35822436       1.35840681      -1.35988777       0.00000000
Si      -1.35451676      -1.36422234       1.38343814       0.00000000
Si      -0.07490142       2.61149877       2.76783611       0.00000000
Si      -2.71681544      -2.71164969       0.00322232       0.00000000
Si       2.71453302      -2.71529865       0.00006856       0.00000000
Si       0.00004887      -2.71448415      -2.71734166       0.00000000
Si      -2.71505414       0.00043983      -2.71723882       0.00000000
Si       2.71492398       0.00034209      -2.71771874       0.00000000
