10
Lattice="16.28999089631971 0.0 0.0 0.0 16.28999089631971 0.0 0.0 0.0 34.279985188174585" Properties=species:S:1:pos:R:3:initial_magmoms:R:1 pbc="T T T"
Si       0.39705965      -0.88959268       2.09630458       0.00000000
Si      -0.37468629      -2.14773454      -0.96450220       0.00000000
Si       2.31351299       0.71088908      -0.31496468       0.00000000
Si      -1.72327023       1.63096620      -0.67175097       0.00000000
Si       1.42200364       1.86865359      -2.19806816       0.00000000
Si      -0.97665066      -1.09189819      -3.10422579       0.00000000
Si       1.84535468      -3.00139570      -0.64628092       0.00000000
Si       1.62846473       0.67695050       3.23772383       0.00000000
Si      -2.55231720       0.67674361      -2.75141599       0.00000000
Si       3.43361339      -1.27402039      -1.16733699       0.00000000
