10
Lattice="16.28999089631971 0.0 0.0 0.0 16.28999089631971 0.0 0.0 0.0 34.279985188174585" Properties=species:S:1:pos:R:3:initial_magmoms:R:1 pbc="T T T"
Si       2.11017402      -0.84281202      -0.73534037       0.00000000
Si      -1.66599459      -1.56893877       0.68525729       0.00000000
Si      -0.92623311       0.66290526      -2.11788723       0.00000000
Si       0.18503811       1.83013263       1.65829521       0.00000000
Si       3.34251319       0.36950607       1.00303293       0.00000000
Si       2.29278492       2.57886990       0.86234779       0.00000000
Si       1.51239618      -3.26454043      -0.78535490       0.00000000
Si      -1.83787038       3.02862051       1.38436370       0.00000000
Si      -3.15910341       1.29132459      -1.76346626       0.00000000
Si      -3.56420313      -0.36647613       1.41919218       0.00000000
