10
Lattice="16.28999089631971 0.0 0.0 0.0 16.28999089631971 0.0 0.0 0.0 34.279985188174585" Properties=species:S:1:pos:R:3:initial_magmoms:R:1 pbc="T T T"
Si      -1.34550513      -1.35070164      -1.34407098       0.00000000
Si       1.35637056      -1.35405738       1.35800237       0.00000000
Si      -1.35713619       1.36062225       1.35913361       0.00000000
Si       1.37407779       1.34511417      -1.38628680       0.00000000
Si      -0.03238452       2.67221160      -2.72107133       0.00000000
Si      -2.75815764      -0.06820623      -2.63690706       0.00000000
Si      -0.00014661      -2.71246419       2.71501062       0.00000000
Si       2.71578735      -2.71221984      -0.00527912       0.00000000
Si       0.00164529      -2.64634308      -2.78102020       0.00000000
Si      -2.71461447      -2.71508688       0.00030852       0.00000000
