10
Lattice="16.28999089631971 0.0 0.0 0.0 16.28999089631971 0.0 0.0 0.0 34.279985188174585" Properties=species:S:1:pos:R:3:initial_magmoms:R:1 pbc="T T T"
Si      -1.35637056       1.35405738      -1.35800237       0.00000000
Si      -1.35651717      -1.35840681       1.35700825       0.00000000
Si       1.35886293       1.35650088       1.35673401       0.00000000
Si       1.35941679      -1.35816246      -1.36328149       0.00000000
Si      -2.70187569       0.00335574      -2.70207335       0.00000000
Si      -2.71350675       2.71467963       0.00113124       0.00000000
Si      -2.71350675      -0.00148239       2.71483922       0.00000000
Si       2.71504471       2.71432125      -0.00044564       0.00000000
Si       0.00104256       2.71430496       2.71507918       0.00000000
Si      -2.71547784      -2.71524978       0.00003428       0.00000000
