10
Lattice="16.28999089631971 0.0 0.0 0.0 16.28999089631971 0.0 0.0 0.0 34.279985188174585" Properties=species:S:1:pos:R:3:initial_magmoms:R:1 pbc="T T T"
Si       1.35618178       1.35782037      -1.35717965       0.00000000
Si      -1.35886293      -1.35650088      -1.35673401       0.00000000
Si       1.35729015      -1.35731538       1.35837945       0.00000000
Si      -1.35782037       1.35780408       1.35834517       0.00000000
Si      -0.00037467      -2.71438641       2.71449642       0.00000000
Si       2.71464772      -2.71469592       0.00013712       0.00000000
Si      -0.00006516       2.71515204       2.71453070       0.00000000
Si       2.71472591       2.71505430       0.00061704       0.00000000
Si       2.71411992       0.00065160       2.71573050       0.00000000
Si      -2.71523349      -0.00244350      -2.71473638       0.00000000
