10
Lattice="16.28999089631971 0.0 0.0 0.0 16.28999089631971 0.0 0.0 0.0 34.279985188174585" Properties=species:S:1:pos:R:3:initial_magmoms:R:1 pbc="T T T"
Si      -0.94218591      -2.14721748       0.10146881       0.00000000
Si       2.32773349       0.25980921       0.28555244       0.00000000
Si      -1.11556689       1.29622788       1.74426946       0.00000000
Si       0.13724162       0.17172918      -2.55852240       0.00000000
Si      -1.39725913       1.61207469      -1.57115544       0.00000000
Si      -2.46417268      -1.63677033      -1.71081218       0.00000000
Si       2.40385666       2.54417220      -0.44687414       0.00000000
Si       0.65567902      -3.58863813      -0.97166672       0.00000000
Si       0.34869397       3.06390465       2.18298496       0.00000000
Si       2.93596951       0.11966634       2.56037352       0.00000000
