10
Lattice="16.28999089631971 0.0 0.0 0.0 16.28999089631971 0.0 0.0 0.0 34.279985188174585" Properties=species:S:1:pos:R:3:initial_magmoms:R:1 pbc="T T T"
Si      -1.53450075       1.44034551       0.98736697       0.00000000
Si       1.37252210       1.18687311      -1.49947595       0.00000000
Si      -1.49068065      -1.43311275      -1.23771384       0.00000000
Si      -0.13724162      -0.17172918       2.55852240       0.00000000
Si      -2.60141430      -1.80849951       0.84771023       0.00000000
Si       2.19049187       0.08808003       2.84407484       0.00000000
Si       3.02362762       1.98032643      -0.04936321       0.00000000
Si      -3.57003399       0.38229372       0.51786803       0.00000000
Si      -1.07942753      -2.31894666       2.65999122       0.00000000
Si      -0.09137875       2.58330078      -2.75028475       0.00000000
