10
Lattice="16.28999089631971 0.0 0.0 0.0 16.28999089631971 0.0 0.0 0.0 34.279985188174585" Properties=species:S:1:pos:R:3:initial_magmoms:R:1 pbc="T T T"
Si       1.91014815       1.23272687      -0.67065401       0.00000000
Si      -0.36362538      -1.72662597      -1.60821212       0.00000000
Si      -1.57566654       1.76864181       0.35280980       0.00000000
Si       0.60196437      -1.05583635       2.13972359       0.00000000
Si       0.97665066       1.09189819       3.10422579       0.00000000
Si      -0.74661957       2.72286440       2.43247483       0.00000000
Si      -3.70356408       0.91192139       0.03290880       0.00000000
Si      -2.62225017      -1.68389730      -2.21222580       0.00000000
Si       0.51785910      -3.77059743      -0.72025717       0.00000000
Si       2.39865430       2.96055179       0.90615763       0.00000000
