10
Lattice="16.28999089631971 0.0 0.0 0.0 16.28999089631971 0.0 0.0 0.0 34.279985188174585" Properties=species:S:1:pos:R:3:initial_magmoms:R:1 pbc="T T T"
Si      -0.82668492       2.16701001      -0.06214965       0.00000000
Si      -0.93307491      -0.74342673       2.00126665       0.00000000
Si       2.25862479      -0.04272867       0.60401368       0.00000000
Si      -0.87573411      -1.14963417      -1.88992520       0.00000000
Si       3.17588211       0.44470071      -1.49964735       0.00000000
Si      -2.83957506       1.79620056      -1.13343406       0.00000000
Si       0.69328611      -2.82621726      -2.06708426       0.00000000
Si      -1.08131391       2.59581869       2.24513460       0.00000000
Si      -0.14895576      -2.90450700       2.18157948       0.00000000
Si       2.62225017       1.68389730       2.21222580       0.00000000
