10
Lattice="16.28999089631971 0.0 0.0 0.0 16.28999089631971 0.0 0.0 0.0 34.279985188174585" Properties=species:S:1:pos:R:3:initial_magmoms:R:1 pbc="T T T"
Si       2.34495202       0.28616643      -0.08062657       0.00000000
Si      -0.12924160      -1.14179868       2.11380791       0.00000000
Si      -1.04972827       2.20936383      -0.14068514       0.00000000
Si      -1.23233917      -1.21231809      -1.73837330       0.00000000
Si       2.32664206       1.40193369       2.05796578       0.00000000
Si      -3.34251319      -0.36950607      -1.00303293       0.00000000
Si      -3.15747508       1.46062656       0.65526228       0.00000000
Si      -0.67462917       3.06341595      -2.32133905       0.00000000
Si      -0.19476324      -3.50001564       1.72202174       0.00000000
Si       1.41739942      -0.05580954       3.65284298       0.00000000
