10
Lattice="16.28999089631971 0.0 0.0 0.0 16.28999089631971 0.0 0.0 0.0 34.279985188174585" Properties=species:S:1:pos:R:3:initial_magmoms:R:1 pbc="T T T"
Si       1.23140508       1.56654318       1.14141925       0.00000000
Si      -0.39705965       0.88959268      -2.09630458       0.00000000
Si      -1.64777327      -1.19931867       1.11322737       0.00000000
Si      -0.77174594      -1.25814186      -3.06080678       0.00000000
Si       1.91645334       1.60048177      -2.41126926       0.00000000
Si      -0.20518900      -2.51467101       2.44664755       0.00000000
Si       2.51781498       0.19086197       2.46646825       0.00000000
Si       2.53053747      -2.63914290      -0.36818100       0.00000000
Si       3.01817862       2.17273481      -0.30349463       0.00000000
Si       1.44829503      -2.11180302      -2.74258550       0.00000000
