10
Lattice="16.28999089631971 0.0 0.0 0.0 16.28999089631971 0.0 0.0 0.0 34.279985188174585" Properties=species:S:1:pos:R:3:initial_magmoms:R:1 pbc="T T T"
Si      -1.35516111       1.35233064       1.35906505       0.00000000
Si       1.35780408       1.35659572      -1.35731677       0.00000000
Si      -1.35691311      -1.35842310      -1.35687113       0.00000000
Si       1.36111095      -1.36195803       1.36187601       0.00000000
Si       2.71472850       2.71318651       0.00051420       0.00000000
Si       0.00014987       2.71435776      -2.71405078       0.00000000
Si      -2.71463795      -0.00099369      -2.71415362       0.00000000
Si      -2.71594115       2.71307085       0.00085700       0.00000000
Si       2.71560816      -0.00084708      -2.71374226       0.00000000
Si       0.00043006      -2.71598283      -2.71401650       0.00000000
