10
Lattice="16.28999089631971 0.0 0.0 0.0 16.28999089631971 0.0 0.0 0.0 34.279985188174585" Properties=species:S:1:pos:R:3:initial_magmoms:R:1 pbc="T T T"
Si      -0.78726312       1.78004088       1.28354620       0.00000000
Si      -1.76508503      -1.52937036      -0.20300619       0.00000000
Si       0.50282343       0.96143580      -2.08199606       0.00000000
Si       2.06485524      -0.64814652       0.92418892       0.00000000
Si      -0.85789656      -2.87300214      -1.85389692       0.00000000
Si       2.54441655      -0.12197952      -2.58292977       0.00000000
Si       0.09681147       1.30645800       3.39365187       0.00000000
Si       1.82423565      -2.94708906       1.21882555       0.00000000
Si      -3.67954352      -0.12958695      -0.23296691       0.00000000
Si       0.10836108       3.29927886      -1.74396094       0.00000000
