10
Lattice="10.86 0.0 0.0 0.0 10.86 0.0 0.0 0.0 10.86" Properties=species:S:1:pos:R:3:initial_magmoms:R:1 pbc="T T T"
Si      -1.14033258       1.17451986      -1.46238588       0.00000000
Si       1.57466742       1.17451986       1.25261412       0.00000000
Si       1.57466742      -1.54048014      -1.46238588       0.00000000
Si      -2.49783258       2.53201986      -0.10488588       0.00000000
Si      -2.38195638      -0.22398750       2.63932752       0.00000000
Si       0.21716742       2.53201986       2.61011412       0.00000000
Si      -2.45706414      -0.06054450      -2.72141826       0.00000000
Si       0.21716742       2.53201986      -2.81988588       0.00000000
Si       2.93216742       2.53201986      -0.10488588       0.00000000
Si       2.93216742      -0.18298014       2.61011412       0.00000000
