10
Lattice="10.86 0.0 0.0 0.0 10.86 0.0 0.0 0.0 10.86" Properties=species:S:1:pos:R:3:initial_magmoms:R:1 pbc="T T T"
Si       1.25049642      -1.27156482       1.52951154       0.00000000
Si       1.97874630       0.29234034      -1.69534374       0.00000000
Si      -1.46618688       1.38940668       1.70065428       0.00000000
Si       0.27094614       2.11347546      -2.25241830       0.00000000
Si       2.50112316      -2.65222920       0.20289738       0.00000000
Si      -0.21387684      -2.65222920      -2.51210262       0.00000000
Si       2.50112316       0.06277080       2.91789738       0.00000000
Si      -2.92887684       0.06277080      -2.51210262       0.00000000
Si      -0.21387684      -2.65222920       2.91789738       0.00000000
Si      -2.92887684      -2.65222920       0.20289738       0.00000000
