10
Lattice="10.86 0.0 0.0 0.0 10.86 0.0 0.0 0.0 10.86" Properties=species:S:1:pos:R:3:initial_magmoms:R:1 pbc="T T T"
Si       1.25062674      -1.38066438      -1.32661416       0.00000000
Si       1.25062674       1.33433562       1.38838584       0.00000000
Si      -1.25049642       1.27156482      -1.52951154       0.00000000
Si      -1.46437326      -1.38066438       1.38838584       0.00000000
Si       2.18944116       2.87041746      -0.15351696       0.00000000
Si       0.72824988       1.56390516      -3.22485528       0.00000000
Si       2.49750678       0.10959912      -2.70386850       0.00000000
Si       2.60812674      -2.73816438       0.03088584       0.00000000
Si       2.60812674      -0.02316438       2.74588584       0.00000000
Si      -2.71668330       2.66097150       0.17114274       0.00000000
