10
Lattice="10.86 0.0 0.0 0.0 10.86 0.0 0.0 0.0 10.86" Properties=species:S:1:pos:R:3:initial_magmoms:R:1 pbc="T T T"
Si      -1.17661584       1.20585096      -1.50138414       0.00000000
Si      -1.17661584      -1.50914904       1.21361586       0.00000000
Si       2.02320714       0.54155562       1.47330018       0.00000000
Si       1.53838416      -1.50914904      -1.50138414       0.00000000
Si       2.74617906       2.18413062       0.01296684       0.00000000
Si       0.18586890       2.43424728       2.58373518       0.00000000
Si      -2.53411584       2.56335096      -0.14388414       0.00000000
Si      -2.53411584      -0.15164904       2.57111586       0.00000000
Si      -2.53411584      -0.15164904      -2.85888414       0.00000000
Si      -2.53411584      -2.86664904      -0.14388414       0.00000000
