10
Lattice="10.86 0.0 0.0 0.0 10.86 0.0 0.0 0.0 10.86" Properties=species:S:1:pos:R:3:initial_magmoms:R:1 pbc="T T T"
Si      -0.93881442      -1.53608184       1.54190280       0.00000000
Si       1.77618558      -1.53608184      -1.17309720       0.00000000
Si       1.77618558       1.17891816       1.54190280       0.00000000
Si       0.54399912       2.49305418      -2.39619384       0.00000000
Si      -2.39647620       2.54543196       0.17554104       0.00000000
Si      -2.18944116      -2.87041746       0.15351696       0.00000000
Si      -1.46119128      -1.30651230      -3.07133832       0.00000000
Si      -2.29631442      -0.17858184       2.89940280       0.00000000
Si       0.30806562      -2.76081834      -2.55035154       0.00000000
Si       0.41868558       2.53641816       2.89940280       0.00000000
