10
Lattice="16.2900001489832 0.0 0.0 0.0 16.2900001489832 0.0 0.0 0.0 29.17179006505858" Properties=species:S:1:pos:R:3:initial_magmoms:R:1 pbc="T T T"
Si      -1.31086283       1.35404110      -1.35827063       0.00000000
Si      -1.40800010      -1.37373408       1.24572587       0.00000000
Si       1.28496010      -1.30943419      -1.49425493       0.00000000
Si       1.33103636       1.46465020       1.31010801       0.00000000
Si       0.40241676       2.37201950      -2.55353806       0.00000000
Si      -2.72757156       0.08366544       2.53325199       0.00000000
Si       2.69088974       0.06239070       2.64325881       0.00000000
Si      -0.07402486      -2.62320805       2.72774032       0.00000000
Si       2.72195477      -2.65306403      -0.17528162       0.00000000
Si       2.52429191       0.22248882      -2.84150447       0.00000000
