10
Lattice="16.2900001489832 0.0 0.0 0.0 16.2900001489832 0.0 0.0 0.0 29.17179006505858" Properties=species:S:1:pos:R:3:initial_magmoms:R:1 pbc="T T T"
Si      -1.33877737      -1.31315320      -1.42159967       0.00000000
Si      -1.42920316       1.37432215       1.28592168       0.00000000
Si       1.35443206       1.37912770      -1.36173916       0.00000000
Si       1.41095836      -1.30772863       1.40228795       0.00000000
Si      -0.09312993      -2.65429588       2.65728753       0.00000000
Si      -2.73605051      -2.59552156      -0.01286476       0.00000000
H       -1.10973997      -1.67402558       3.20402522       0.00000000
Si      -0.08889453       2.61107525       2.74057299       0.00000000
Si       2.64391589       2.75775042       0.04690824       0.00000000
Si       2.71528238      -2.69025280      -0.01814485       0.00000000
