10
Lattice="16.2900001489832 0.0 0.0 0.0 16.2900001489832 0.0 0.0 0.0 29.17179006505858" Properties=species:S:1:pos:R:3:initial_magmoms:R:1 pbc="T T T"
Si      -1.40177080       1.34159554      -1.32754982       0.00000000
Si      -1.33661080      -1.45891775       1.29147890       0.00000000
Si       1.38614869      -1.33577838      -1.38178018       0.00000000
Si       1.36769212       1.32827032       1.40803771       0.00000000
H        2.33223932      -0.40816224      -2.12989074       0.00000000
Si      -2.71774217      -0.08876421       2.69176858       0.00000000
Si       2.79246441      -0.07123617       2.64986914       0.00000000
Si       0.06867864      -2.79036576       2.65390360       0.00000000
Si       0.00641826       2.56917737       2.90281773       0.00000000
Si      -2.61513146      -2.86153547      -0.16931307       0.00000000
