10
Lattice="16.2900001489832 0.0 0.0 0.0 16.2900001489832 0.0 0.0 0.0 29.17179006505858" Properties=species:S:1:pos:R:3:initial_magmoms:R:1 pbc="T T T"
Si      -1.38036574       1.36206018      -1.36468551       0.00000000
Si       1.32554989       1.34034072       1.44330349       0.00000000
Si      -1.33810948      -1.33627735       1.44563723       0.00000000
Si       1.35286822      -1.34999353      -1.44015293       0.00000000
Si      -2.67895568      -2.66674682       0.03115547       0.00000000
Si       2.71513577       2.71142931       0.09644194       0.00000000
Si       2.68413590      -2.74800134      -0.07838460       0.00000000
Si       2.73101852      -0.07085759       2.71207215       0.00000000
Si      -2.72850987       2.71744032       0.03984867       0.00000000
Si      -2.69744483       0.00198559      -2.77869177       0.00000000
