10
Lattice="16.2900001489832 0.0 0.0 0.0 16.2900001489832 0.0 0.0 0.0 29.17179006505858" Properties=species:S:1:pos:R:3:initial_magmoms:R:1 pbc="T T T"
Si       1.22091922       1.50786757      -1.35663410       0.00000000
Si      -1.44186049      -1.30047958      -1.42460437       0.00000000
Si      -1.40657635       1.47170377       1.31614365       0.00000000
Si       1.52151859      -1.58584780       1.03055183       0.00000000
H       -0.41257683      -1.11001690       2.96277451       0.00000000
H        0.66420847      -2.70541716       1.57235948       0.00000000
Si       2.55463040       0.13572828      -2.80022930       0.00000000
Si       2.72302013      -0.39768777       2.66189667       0.00000000
Si      -0.13753647      -2.68300375      -2.84503717       0.00000000
Si      -0.20890296       2.76499947      -2.77998408       0.00000000
