10
Lattice="16.2900001489832 0.0 0.0 0.0 16.2900001489832 0.0 0.0 0.0 29.17179006505858" Properties=species:S:1:pos:R:3:initial_magmoms:R:1 pbc="T T T"
Si       1.33177267      -1.37482388      -1.32568283       0.00000000
Si       0.88757695       0.89717176       1.99669234       0.00000000
Si      -1.38460114       1.42755787      -1.31529767       0.00000000
Si      -1.09700119      -1.46792286       1.54029969       0.00000000
Si      -0.47120454       2.83530711       1.93575247       0.00000000
Si      -2.40642398       2.55264302       0.55980665       0.00000000
Si       0.40843917      -1.31309130       3.33197269       0.00000000
Si       2.67380756       0.03295467      -2.69757377       0.00000000
Si      -0.10715562      -2.57970560      -2.79092350       0.00000000
Si       0.00759114       2.68552055      -2.76198508       0.00000000
