10
Lattice="16.2900001489832 0.0 0.0 0.0 16.2900001489832 0.0 0.0 0.0 29.17179006505858" Properties=species:S:1:pos:R:3:initial_magmoms:R:1 pbc="T T T"
Si      -1.22091922      -1.50786757       1.35663410       0.00000000
Si      -1.42982218       1.25713189      -1.42334998       0.00000000
Si       1.33371118      -1.37213929      -1.44359520       0.00000000
Si       0.86771944       1.89944660       1.23878007       0.00000000
Si      -2.62749557      -0.03616380       2.67277775       0.00000000
Si      -2.77666311       2.61135218      -0.00720543       0.00000000
Si      -0.01500309       2.67048488      -2.73727658       0.00000000
Si      -0.85703320       3.58544532       1.08761185       0.00000000
Si      -2.66277971      -2.80834716      -0.06797027       0.00000000
Si       2.71379999       2.76283290       0.00974338       0.00000000
