10
Lattice="16.2900001489832 0.0 0.0 0.0 16.2900001489832 0.0 0.0 0.0 29.17179006505858" Properties=species:S:1:pos:R:3:initial_magmoms:R:1 pbc="T T T"
Si      -0.58872061       0.88024971      -2.06655878       0.00000000
Si       1.16828623      -1.87069149      -0.97541714       0.00000000
Si       1.75229903       1.56231201       0.60000538       0.00000000
Si      -1.95222620      -0.71181436       1.31760224       0.00000000
H        0.75243511       1.57322631      -2.30048736       0.00000000
H       -1.52394580      -3.11827744       0.33967632       0.00000000
Si       3.63332163      -0.03683006       0.43445547       0.00000000
Si      -0.98831431      -0.96748917      -3.45676961       0.00000000
Si      -2.09157086       0.94166301       2.93669493       0.00000000
Si       1.59246154      -3.60303526       0.65362313       0.00000000
