10
Lattice="16.2900001489832 0.0 0.0 0.0 16.2900001489832 0.0 0.0 0.0 29.17179006505858" Properties=species:S:1:pos:R:3:initial_magmoms:R:1 pbc="T T T"
Si      -1.36060597      -1.37316556      -1.33683812       0.00000000
Si      -1.43570287       1.31777956       1.35488379       0.00000000
Si       1.29122686      -1.32284575       1.50278477       0.00000000
Si       1.31675329       1.29554371      -1.52383513       0.00000000
Si      -0.07424982       2.68165982       2.66662250       0.00000000
Si       2.62847297      -2.71767701       0.12424265       0.00000000
Si       2.67849956       2.69421941      -0.18392814       0.00000000
Si      -2.72334593      -2.71692767       0.04731664       0.00000000
Si      -2.80008813      -0.02093265      -2.64963869       0.00000000
Si      -0.00055386      -2.79891525      -2.65232249       0.00000000
