10
Lattice="16.2900001489832 0.0 0.0 0.0 16.2900001489832 0.0 0.0 0.0 29.17179006505858" Properties=species:S:1:pos:R:3:initial_magmoms:R:1 pbc="T T T"
Si       1.01687068      -1.63018918       1.40479672       0.00000000
Si      -1.08810685      -0.78063310      -1.98514031       0.00000000
Si      -0.90311761       2.11198223       0.67850667       0.00000000
Si       2.17201088       0.91455319      -0.66319148       0.00000000
H        0.61460542       1.43580061      -2.61714715       0.00000000
H        1.86647564      -2.57166974       0.29040517       0.00000000
H        1.96579577       2.41434092      -0.91383550       0.00000000
Si      -2.54749538      -0.78286483       1.99015786       0.00000000
Si       2.61234587      -0.40104351       2.65221164       0.00000000
Si       0.65269144      -0.71177527      -3.67059883       0.00000000
