10
Lattice="16.2900001489832 0.0 0.0 0.0 16.2900001489832 0.0 0.0 0.0 29.17179006505858" Properties=species:S:1:pos:R:3:initial_magmoms:R:1 pbc="T T T"
Si      -1.10340316      -1.44935389       1.50987351       0.00000000
Si      -1.54373815      -0.13375719      -1.80552960       0.00000000
Si       2.29602665      -0.20030184      -0.67961519       0.00000000
Si       0.02720430       2.21514680       1.00149672       0.00000000
H       -1.74995327       1.36603054      -2.05617362       0.00000000
Si       2.73616616       2.03730887      -1.38250947       0.00000000
Si      -2.45620622      -0.04505814       2.87476322       0.00000000
Si       0.86885974       1.94406491       3.13723932       0.00000000
Si      -2.69887835      -2.67849956       0.26245860       0.00000000
Si       1.40380705       3.58775850      -0.28104103       0.00000000
