10
Lattice="16.2900001489832 0.0 0.0 0.0 16.2900001489832 0.0 0.0 0.0 29.17179006505858" Properties=species:S:1:pos:R:3:initial_magmoms:R:1 pbc="T T T"
Si      -0.84960496       0.94148056       1.11439155       0.00000000
Si       1.00321966      -1.13130467      -0.88136729       0.00000000
Si      -0.61763536      -2.82348057      -1.32437010       0.00000000
Si      -1.86647564       2.57166974      -0.29040517       0.00000000
Si       1.86036689       0.25322805      -2.59325545       0.00000000
Si      -2.03566358      -0.60581859       2.44579205       0.00000000
Si       2.49717557      -1.98749584       0.77433600       0.00000000
Si       0.74587024       2.17062623       2.36180647       0.00000000
Si       0.30553524       3.48622293      -0.95359665       0.00000000
Si      -2.82730872      -2.14638671      -0.98740675       0.00000000
