10
Lattice="16.2900001489832 0.0 0.0 0.0 16.2900001489832 0.0 0.0 0.0 29.17179006505858" Properties=species:S:1:pos:R:3:initial_magmoms:R:1 pbc="T T T"
Si      -0.44776323       1.81258832      -1.40214209       0.00000000
Si       2.45602589      -0.03859101      -0.32576138       0.00000000
Si      -1.31323465      -1.65516176      -1.35558391       0.00000000
Si      -1.23869161       0.82469755       2.09421364       0.00000000
Si      -3.22747257       0.59629546       0.61806272       0.00000000
Si      -2.75265165       1.41959206      -1.50716053       0.00000000
Si       3.31562753      -0.14361264       1.81223911       0.00000000
Si       1.13731894      -3.60219144      -0.49959608       0.00000000
Si       0.38204937      -2.83138122      -2.57038477       0.00000000
Si      -2.10636218      -1.22779360       3.04553488       0.00000000
