10
Lattice="16.2900001489832 0.0 0.0 0.0 16.2900001489832 0.0 0.0 0.0 29.17179006505858" Properties=species:S:1:pos:R:3:initial_magmoms:R:1 pbc="T T T"
Si       0.85731013       1.11956936      -0.54180766       0.00000000
H       -1.07678530       1.59540026       1.39041503       0.00000000
H        1.74030959      -2.10168043       0.42897117       0.00000000
Si      -1.13619493      -2.57659910       0.45408808       0.00000000
Si      -2.81753472      -0.94531522       0.23413279       0.00000000
Si       2.25407990      -0.21701050      -1.95500585       0.00000000
Si      -2.41794101       0.90242365       1.62434361       0.00000000
Si      -0.66420847       2.70541716      -1.57235948       0.00000000
Si       2.05881167       2.30772939       1.08953719       0.00000000
Si      -0.66093418      -1.84851754       2.71548525       0.00000000
