10
Lattice="16.2900001489832 0.0 0.0 0.0 16.2900001489832 0.0 0.0 0.0 29.17179006505858" Properties=species:S:1:pos:R:3:initial_magmoms:R:1 pbc="T T T"
Si      -1.22039452       1.38267892       1.43595219       0.00000000
Si       1.46412078      -1.20163186       1.38186770       0.00000000
Si       1.13354781       1.74008478      -1.16739669       0.00000000
Si      -1.54830750      -1.29238345      -1.33338418       0.00000000
Si      -2.37352633       2.78550695      -0.01371074       0.00000000
Si      -0.57226119       3.34448364      -1.43945281       0.00000000
Si       2.35078549      -2.95266027       0.10323897       0.00000000
Si      -2.56905520       0.03637557       2.76760649       0.00000000
Si       0.12560893      -2.41978178       2.92003784       0.00000000
Si      -1.40176266      -0.52851276      -3.52261034       0.00000000
