10
Lattice="16.2900001489832 0.0 0.0 0.0 16.2900001489832 0.0 0.0 0.0 29.17179006505858" Properties=species:S:1:pos:R:3:initial_magmoms:R:1 pbc="T T T"
Si      -1.40859631      -1.30344436       1.35823855       0.00000000
Si      -1.42006447       1.34434855      -1.31398494       0.00000000
Si       1.30904812       1.36125757       1.45152993       0.00000000
Si       1.31527090      -1.34156296      -1.49225375       0.00000000
Si       2.64227060       2.61272054      -0.04787091       0.00000000
Si       0.03710862      -2.66419694       2.61204208       0.00000000
Si      -0.03424158       2.73481410      -2.60612896       0.00000000
Si       2.70593192      -0.08340480       2.71081776       0.00000000
Si      -2.74346409      -0.08433333      -2.68888933       0.00000000
Si       2.71671590      -2.72380205      -0.20003096       0.00000000
