10
Lattice="16.2900001489832 0.0 0.0 0.0 16.2900001489832 0.0 0.0 0.0 29.17179006505858" Properties=species:S:1:pos:R:3:initial_magmoms:R:1 pbc="T T T"
Si       1.33322248       1.25146297      -1.49940084       0.00000000
Si       1.39688380      -1.44466237       1.25928783       0.00000000
Si      -1.30904812      -1.36125757      -1.45152993       0.00000000
Si      -1.33755562       1.47027025       1.36004720       0.00000000
Si       2.71463078       2.57259827      -0.19991428       0.00000000
Si      -2.71764443      -2.66470193      -0.09329138       0.00000000
Si       0.00469152      -2.70262505       2.70597525       0.00000000
Si      -2.61731432       2.80595253      -0.12529284       0.00000000
Si       0.02888217       2.73917982      -2.75372947       0.00000000
Si      -2.72911260      -0.01690902      -2.76551487       0.00000000
