10
Lattice="16.2900001489832 0.0 0.0 0.0 16.2900001489832 0.0 0.0 0.0 29.17179006505858" Properties=species:S:1:pos:R:3:initial_magmoms:R:1 pbc="T T T"
Si       1.01190223       0.59308633       2.07487274       0.00000000
Si       0.90311761      -2.11198223      -0.67850667       0.00000000
Si      -2.39186724       0.23372892       0.27549839       0.00000000
Si       0.90872137       1.59523084      -1.60474017       0.00000000
H       -0.55833976       2.16296993      -2.10459879       0.00000000
H       -2.72796089       1.58728132       0.88524714       0.00000000
H        2.86891338       0.30235869      -1.59234216       0.00000000
Si       3.07512849      -1.19742904      -1.34169814       0.00000000
Si      -1.64437778      -2.89484706       1.31165120       0.00000000
H        1.51772302      -0.67618162      -3.29565381       0.00000000
