10
Lattice="16.2900001489832 0.0 0.0 0.0 16.2900001489832 0.0 0.0 0.0 29.17179006505858" Properties=species:S:1:pos:R:3:initial_magmoms:R:1 pbc="T T T"
Si      -1.26368047      -1.37200897       1.40001255       0.00000000
Si       1.38251602      -1.43878168      -1.22842408       0.00000000
Si       1.30453579       1.35630541       1.44161152       0.00000000
Si      -1.32545215       1.21702591      -1.54838027       0.00000000
Si      -2.69759144       2.54026262      -0.13448195       0.00000000
Si       2.64749969       2.63925695      -0.01820320       0.00000000
Si       2.73103482      -0.16374708       2.57266017       0.00000000
Si       0.01034415      -2.80440498      -2.53235350       0.00000000
Si       2.75994957      -0.15113862      -2.62773067       0.00000000
Si      -2.68560200      -0.05160672       2.73818090       0.00000000
