10
Lattice="16.2900001489832 0.0 0.0 0.0 16.2900001489832 0.0 0.0 0.0 29.17179006505858" Properties=species:S:1:pos:R:3:initial_magmoms:R:1 pbc="T T T"
Si      -0.94609063      -0.92761614       0.74811056       0.00000000
Si       0.52937613      -2.35868353       1.92656336       0.00000000
Si      -2.33223932       0.40816224       2.12989074       0.00000000
Si       0.83523718       1.39916440      -2.73724741       0.00000000
Si      -1.98270479      -2.40836428      -0.78512956       0.00000000
Si       2.76840408       0.53309025      -1.66057498       0.00000000
Si      -0.33458031       2.99880984      -1.38714779       0.00000000
Si       1.22666959       3.41233149       0.33743010       0.00000000
Si       1.66293209      -3.28792476      -0.03238069       0.00000000
Si       3.14636466       1.94584052       0.23188656       0.00000000
