10
Lattice="16.2900001489832 0.0 0.0 0.0 16.2900001489832 0.0 0.0 0.0 29.17179006505858" Properties=species:S:1:pos:R:3:initial_magmoms:R:1 pbc="T T T"
Si      -1.48408417       1.10555344      -1.45155910       0.00000000
Si       0.48470895      -2.29153061      -0.39597788       0.00000000
Si       2.06949791       1.17301033      -0.17377635       0.00000000
Si      -1.30060990      -0.21357819       1.99508789       0.00000000
H       -2.35727705      -1.79470190      -1.99400854       0.00000000
Si       3.53769445      -0.52041663       0.51170237       0.00000000
Si      -3.34840953      -1.00023859       1.06888356       0.00000000
Si       2.79763648      -2.18621576      -1.00946062       0.00000000
Si      -3.56115693       0.09695808      -1.00890636       0.00000000
Si      -0.85750561       0.46076265      -3.63958922       0.00000000
