10
Lattice="16.2900001489832 0.0 0.0 0.0 16.2900001489832 0.0 0.0 0.0 29.17179006505858" Properties=species:S:1:pos:R:3:initial_magmoms:R:1 pbc="T T T"
Si      -1.88683814       0.71729758      -1.26611403       0.00000000
Si       0.55904023       1.00610299       2.10471548       0.00000000
Si      -1.10027548      -2.13788333       0.67786489       0.00000000
Si       1.88993324       0.97604794      -1.31795230       0.00000000
H        2.53817750      -1.76722067      -0.44349872       0.00000000
Si      -1.06679953       2.83600758      -1.83417630       0.00000000
H       -0.63092800       3.49922235      -0.53095575       0.00000000
Si      -1.79652638      -0.75986335      -3.13316694       0.00000000
Si      -3.25694118      -1.28881594       1.35310431       0.00000000
Si       0.76240459       2.04354794      -3.07027256       0.00000000
