10
Lattice="16.2900001489832 0.0 0.0 0.0 16.2900001489832 0.0 0.0 0.0 29.17179006505858" Properties=species:S:1:pos:R:3:initial_magmoms:R:1 pbc="T T T"
H        0.84960496      -0.94148056      -1.11439155       0.00000000
Si      -1.18605862      -1.54729915       1.33140050       0.00000000
Si       1.59547519       1.22914567       1.24741492       0.00000000
Si      -1.01687068       1.63018918      -1.40479672       0.00000000
Si       1.85282462      -2.07278523      -1.99575885       0.00000000
Si       1.15514020       2.54474237      -2.06798820       0.00000000
Si      -2.57429243      -0.04391784       2.59188438       0.00000000
Si      -3.56436606       0.84732436       0.58536114       0.00000000
Si       0.24267213       2.63344142       2.61230463       0.00000000
Si       2.69887835       2.67849956      -0.26245860       0.00000000
