10
Lattice="16.2900001489832 0.0 0.0 0.0 16.2900001489832 0.0 0.0 0.0 29.17179006505858" Properties=species:S:1:pos:R:3:initial_magmoms:R:1 pbc="T T T"
H        0.39284964      -0.17303238       1.47078331       0.00000000
Si      -2.17842914       0.87493591      -0.14871779       0.00000000
Si      -0.40995414      -2.22752720      -0.67494771       0.00000000
Si       1.64864576       1.50675985      -0.89840362       0.00000000
H       -1.85981303      -1.31026987       2.21985654       0.00000000
Si      -0.78138244      -1.18599346       3.26939920       0.00000000
Si      -1.88703362       3.03433996       0.61873367       0.00000000
Si      -2.75651238       1.14432364      -2.43088527       0.00000000
Si       0.88477507      -2.69104286      -2.62791154       0.00000000
Si       0.54174024       3.12743894      -2.24724885       0.00000000
