10
Lattice="16.2900001489832 0.0 0.0 0.0 16.2900001489832 0.0 0.0 0.0 29.17179006505858" Properties=species:S:1:pos:R:3:initial_magmoms:R:1 pbc="T T T"
Si      -0.78504769      -1.03700512      -0.81056736       0.00000000
Si      -1.20387988       1.89165998       0.98510218       0.00000000
Si      -1.96757138       0.35222238      -2.23377148       0.00000000
Si       0.87397480      -2.04776542      -2.04103346       0.00000000
Si       2.37941516      -1.89293386      -0.24936046       0.00000000
Si      -2.22228182      -1.97016312       0.80204920       0.00000000
Si       0.87319288       2.90025534       0.54244944       0.00000000
Si       1.49977144       2.25546455      -1.64558068       0.00000000
Si       2.85855294       0.31732920      -1.58464081       0.00000000
Si       2.84198601      -0.49682871       1.59803066       0.00000000
