10
Lattice="16.2900001489832 0.0 0.0 0.0 16.2900001489832 0.0 0.0 0.0 29.17179006505858" Properties=species:S:1:pos:R:3:initial_magmoms:R:1 pbc="T T T"
Si      -1.23430960       1.33242427      -1.49872989       0.00000000
Si       1.43892829       1.20488172       1.46524067       0.00000000
Si       1.32383944      -1.42618463      -1.37483729       0.00000000
Si      -1.85932433      -0.77823358       1.28160425       0.00000000
Si      -2.55407654       2.68443401      -0.06983727       0.00000000
Si       0.10715562       2.57970560       2.79092350       0.00000000
Si      -2.72922663      -2.66199291       0.07278362       0.00000000
Si       2.78096318       2.61266027       0.09334973       0.00000000
Si       2.54583380      -0.41579737       2.81408590       0.00000000
Si       2.77907745      -0.08204459      -2.68742199       0.00000000
