10
Lattice="16.2900001489832 0.0 0.0 0.0 16.2900001489832 0.0 0.0 0.0 29.17179006505858" Properties=species:S:1:pos:R:3:initial_magmoms:R:1 pbc="T T T"
Si      -1.98405686       1.18756219      -0.21890511       0.00000000
Si       1.36283770       0.49129500      -1.85882646       0.00000000
Si      -0.88798420      -2.25710495       0.14947625       0.00000000
Si       1.52691058       1.31415178       1.41780734       0.00000000
H       -1.86826754       0.43926474       2.32575013       0.00000000
H        0.98442100       2.70748436       1.14280488       0.00000000
Si       1.40344867       2.95189952      -1.57551004       0.00000000
H        1.00551655      -1.99889216       2.94445463       0.00000000
Si      -1.73481986      -2.39117165       2.31419811       0.00000000
Si       3.29610234      -1.02511342      -1.69006766       0.00000000
