10
Lattice="16.2900001489832 0.0 0.0 0.0 16.2900001489832 0.0 0.0 0.0 29.17179006505858" Properties=species:S:1:pos:R:3:initial_magmoms:R:1 pbc="T T T"
Si       1.46073897       0.23227911      -1.85258370       0.00000000
Si      -2.22949992      -0.63871462      -0.57862246       0.00000000
Si       0.06686068      -1.34755768       1.99056627       0.00000000
Si       0.46187526       2.23212098       0.80444128       0.00000000
H        1.40862726      -2.54203823      -1.42734652       0.00000000
Si      -0.66127790       2.01166841       2.82625054       0.00000000
Si       0.03140875       3.38081034      -1.18685428       0.00000000
Si       0.80691864       0.31824144       3.51172926       0.00000000
Si      -2.24606685      -1.45287253       2.60404901       0.00000000
Si       3.68085422       0.03580542      -1.05526033       0.00000000
