10
Lattice="16.2900001489832 0.0 0.0 0.0 16.2900001489832 0.0 0.0 0.0 29.17179006505858" Properties=species:S:1:pos:R:3:initial_magmoms:R:1 pbc="T T T"
Si       1.31804020       1.31442382       1.42568664       0.00000000
Si      -1.39463578       1.48098907      -1.18142249       0.00000000
Si      -1.39887118      -1.32713002       1.35853318       0.00000000
Si       1.41928255      -1.43899345      -1.24076666       0.00000000
Si       2.65033057       2.68211594       0.03242444       0.00000000
Si       0.00257382      -2.70936911       2.65075597       0.00000000
Si      -2.67156002      -2.71031393      -0.09105099       0.00000000
Si      -0.07187148       2.62715348       2.80291602       0.00000000
Si      -2.74838367       2.74924704       0.24465797       0.00000000
Si       2.73014538      -2.79303456       0.11750397       0.00000000
