10
Lattice="16.2900001489832 0.0 0.0 0.0 16.2900001489832 0.0 0.0 0.0 29.17179006505858" Properties=species:S:1:pos:R:3:initial_magmoms:R:1 pbc="T T T"
Si      -0.76498981       0.18026514      -2.17751077       0.00000000
Si      -1.71327959      -1.01797840       1.19526742       0.00000000
Si       0.94848852       1.84347416       1.08675420       0.00000000
Si       1.13180152      -1.25828848      -2.29448964       0.00000000
Si       2.12187515      -2.14953068      -0.28796641       0.00000000
Si       2.29003682       0.49068738       2.50069628       0.00000000
Si      -0.40241676      -2.37201950       2.55353806       0.00000000
Si      -2.88247806      -2.23899536      -0.41573885       0.00000000
Si       0.38431205       1.87028750      -3.33064246       0.00000000
Si       3.58165464      -0.86921812       1.07820978       0.00000000
