10
Lattice="16.2900001489832 0.0 0.0 0.0 16.2900001489832 0.0 0.0 0.0 29.17179006505858" Properties=species:S:1:pos:R:3:initial_magmoms:R:1 pbc="T T T"
Si       1.38140830       1.32113530       1.29948656       0.00000000
Si      -1.30434031       1.48771684      -1.25432863       0.00000000
Si       1.38991168      -1.31272966      -1.37722938       0.00000000
Si      -1.33322248      -1.25146297       1.49940084       0.00000000
Si      -2.67651218       0.12209355      -2.55825805       0.00000000
Si      -2.64227060      -2.61272054       0.04787091       0.00000000
Si       0.04417848       2.76275145       2.54675562       0.00000000
Si       2.76014032      -2.62342307       0.03809836       0.00000000
Si       0.07309323       2.77535991      -2.65363522       0.00000000
Si       0.07187148      -2.62715348      -2.80291602       0.00000000
