10
Lattice="16.2900001489832 0.0 0.0 0.0 16.2900001489832 0.0 0.0 0.0 29.17179006505858" Properties=species:S:1:pos:R:3:initial_magmoms:R:1 pbc="T T T"
Si       1.78719221       0.90051121       1.25444532       0.00000000
Si       1.31445640      -1.36102951      -1.41804072       0.00000000
Si      -1.39219228      -1.25796268       1.44668741       0.00000000
Si      -1.39688380       1.44466237      -1.25928783       0.00000000
Si      -2.66882330      -2.58079214      -0.09877568       0.00000000
Si       2.66621642      -2.65256588       0.06441131       0.00000000
Si      -2.70593192       0.08340480      -2.71081776       0.00000000
Si       2.69647900       0.07270227      -2.72059031       0.00000000
Si       2.66796889       2.76879504       0.02642964       0.00000000
Si      -0.00759114      -2.68552055       2.76198508       0.00000000
