10
Lattice="16.2900001489832 0.0 0.0 0.0 16.2900001489832 0.0 0.0 0.0 29.17179006505858" Properties=species:S:1:pos:R:3:initial_magmoms:R:1 pbc="T T T"
H       -0.52992999       1.03676077      -0.96240653       0.00000000
Si      -1.12703995       0.11007153       2.09543885       0.00000000
Si       1.99731692       1.08295921       0.86205557       0.00000000
Si       0.00410508      -1.99378199      -1.41748645       0.00000000
H        2.00653706       1.60736689      -2.14611025       0.00000000
Si       0.15890895      -1.51544242       3.16070511       0.00000000
Si       1.67143547      -3.19854153      -0.20160624       0.00000000
Si       3.08496765       1.73164331      -1.09656759       0.00000000
Si       0.38551914      -3.42867036       1.83560572       0.00000000
Si      -2.16091739      -0.73855603      -3.17222797       0.00000000
