10
Lattice="16.2900001489832 0.0 0.0 0.0 16.2900001489832 0.0 0.0 0.0 29.17179006505858" Properties=species:S:1:pos:R:3:initial_magmoms:R:1 pbc="T T T"
Si      -0.07273485      -2.22399227      -0.77421931       0.00000000
Si       0.54002979       1.01159728      -2.06749228       0.00000000
Si       1.68754628       0.18762822       1.68012008       0.00000000
Si      -1.95809060       1.06718870       0.92737121       0.00000000
H       -0.21944259       0.19181475      -3.10069874       0.00000000
H       -2.44393985       0.65743183      -2.58062406       0.00000000
Si      -0.92147644       2.54793684       2.46061132       0.00000000
Si      -2.42390315      -2.67359627      -0.64271288       0.00000000
Si       3.19823202       1.73081577       0.75225295       0.00000000
Si       0.55399033       1.11686945       3.63906412       0.00000000
