10
Lattice="16.2900001489832 0.0 0.0 0.0 16.2900001489832 0.0 0.0 0.0 29.17179006505858" Properties=species:S:1:pos:R:3:initial_magmoms:R:1 pbc="T T T"
Si      -1.37743354      -1.28764306       1.39930659       0.00000000
Si       1.32009274       1.38236941       1.36826781       0.00000000
Si       1.29028204      -1.33823980      -1.44379065       0.00000000
Si      -1.28057320       1.19954674      -1.56982154       0.00000000
Si       0.55506547       2.05920263      -2.78241117       0.00000000
Si       2.40792266       0.36790965      -2.60674653       0.00000000
Si      -0.44965287      -2.29526102      -2.74340557       0.00000000
Si      -2.18299034      -0.61392124      -2.82301830       0.00000000
Si       2.69525025      -0.02694366       2.66571234       0.00000000
Si       2.64910882      -2.72039744      -0.11685636       0.00000000
