10
Lattice="16.2900001489832 0.0 0.0 0.0 16.2900001489832 0.0 0.0 0.0 29.17179006505858" Properties=species:S:1:pos:R:3:initial_magmoms:R:1 pbc="T T T"
Si       1.38137572       1.28985850       1.39521379       0.00000000
Si       1.29161782      -1.35990550      -1.42248650       0.00000000
Si      -1.34154830       1.35278677      -1.41394208       0.00000000
Si      -1.36141721      -1.39805668       1.36294979       0.00000000
Si      -2.29003682      -0.49068738      -2.50069628       0.00000000
Si       2.74411569       2.63362061       0.01105903       0.00000000
Si      -2.77226839       2.61244361      -0.03223775       0.00000000
Si       0.01053963       2.68195304       2.72005064       0.00000000
Si       2.64880289       0.03714120      -2.76824243       0.00000000
Si      -0.16816167      -2.64021806      -2.78866269       0.00000000
