10
Lattice="16.2900001489832 0.0 0.0 0.0 16.2900001489832 0.0 0.0 0.0 29.17179006505858" Properties=species:S:1:pos:R:3:initial_magmoms:R:1 pbc="T T T"
Si       0.43233660      -2.24797115       0.67389752       0.00000000
Si       0.43652313       1.40444236       1.88802742       0.00000000
Si      -1.96880942       0.63604306      -1.20625352       0.00000000
Si       1.76945240       0.43525251      -1.68971760       0.00000000
H       -2.25694694      -1.28915803       1.39727040       0.00000000
H        1.69746689      -0.35961804       2.56942210       0.00000000
H       -0.70424929       2.40189536       1.89033200       0.00000000
Si       2.30231459      -1.67839130       2.08070710       0.00000000
Si      -1.34104168       2.86309785      -1.87781730       0.00000000
Si       1.53862309      -3.21782889      -1.13816656       0.00000000
