10
Lattice="16.2900001489832 0.0 0.0 0.0 16.2900001489832 0.0 0.0 0.0 29.17179006505858" Properties=species:S:1:pos:R:3:initial_magmoms:R:1 pbc="T T T"
Si       0.76498981      -0.18026514       2.17751077       0.00000000
Si       1.14930186       1.69002236      -1.15313169       0.00000000
Si       1.89679133      -1.43855362      -0.11697888       0.00000000
Si      -2.35299278      -0.86064958      -0.02537946       0.00000000
H        0.81320821       3.04357476      -0.54338293       0.00000000
Si       0.96086403      -3.41449806      -0.91535243       0.00000000
Si      -2.11748825      -2.41926050       1.76177192       0.00000000
Si      -0.94828978      -1.19824354       3.37277819       0.00000000
Si       0.28970022       1.79504399      -3.29113218       0.00000000
Si      -1.02900673      -1.76855645      -3.46496688       0.00000000
