10
Lattice="16.2900001489832 0.0 0.0 0.0 16.2900001489832 0.0 0.0 0.0 29.17179006505858" Properties=species:S:1:pos:R:3:initial_magmoms:R:1 pbc="T T T"
Si       0.44776323      -1.81258832       1.40214209       0.00000000
Si      -2.30488841      -0.39299625      -0.10501844       0.00000000
Si       0.37843299      -0.48286818      -2.27820012       0.00000000
Si       0.21494655       2.30752739       0.68717069       0.00000000
Si      -0.46460709       1.64765207      -2.87487991       0.00000000
Si      -0.86547142      -3.46775007       0.04655818       0.00000000
Si       2.90378913      -1.85117933       1.07638071       0.00000000
Si      -0.72754399       3.32017896      -1.21532595       0.00000000
Si      -2.77970934      -1.21629286       2.02020481       0.00000000
Si      -0.79092838      -0.98789077       3.49635573       0.00000000
