10
Lattice="16.2900001489832 0.0 0.0 0.0 16.2900001489832 0.0 0.0 0.0 29.17179006505858" Properties=species:S:1:pos:R:3:initial_magmoms:R:1 pbc="T T T"
H       -0.60484771       1.31877325       0.48871500       0.00000000
Si       2.07707276       1.00859536      -0.44265274       0.00000000
Si       0.21274740      -1.09719667       2.07778992       0.00000000
Si      -1.86997799      -0.56957986      -1.40680958       0.00000000
H        1.20387988      -1.89165998      -0.98510218       0.00000000
Si       0.41883219      -2.92866510      -1.79566954       0.00000000
Si      -1.67936870       0.10622709       3.02666073       0.00000000
Si      -2.30231459       1.67839130      -2.08070710       0.00000000
Si      -1.74610883       2.30338973       2.09853106       0.00000000
Si      -1.86579146       3.08283366      -0.19267967       0.00000000
