10
Lattice="16.2900001489832 0.0 0.0 0.0 16.2900001489832 0.0 0.0 0.0 29.17179006505858" Properties=species:S:1:pos:R:3:initial_magmoms:R:1 pbc="T T T"
Si      -1.25584335       0.72319456      -1.88648132       0.00000000
Si       1.96327082       1.38137572      -0.17278451       0.00000000
Si      -1.87906781       0.81419050       1.35595527       0.00000000
Si       0.97989238      -2.00842670       1.09534237       0.00000000
H       -1.10743168      -2.15340770      -1.34350679       0.00000000
H       -2.57476484      -0.01438407      -1.78569279       0.00000000
Si      -0.26190574       1.91425421       2.64401436       0.00000000
Si       1.07660611       3.13240413       1.10584422       0.00000000
Si       2.43902027      -0.90070669       2.57634165       0.00000000
Si       3.71319150       0.30822309       1.02565097       0.00000000
