10
Lattice="16.2900001489832 0.0 0.0 0.0 16.2900001489832 0.0 0.0 0.0 29.17179006505858" Properties=species:S:1:pos:R:3:initial_magmoms:R:1 pbc="T T T"
H        0.43587153       0.66321478       1.30322055       0.00000000
Si      -0.73594963       1.46611630      -1.63822939       0.00000000
Si      -0.82003861      -2.11871000       0.56806227       0.00000000
Si       1.82920412      -0.79245964      -1.23609626       0.00000000
H       -2.18310437      -1.04282065      -2.36839929       0.00000000
Si      -1.27695682      -0.16953003      -3.22071148       0.00000000
Si       2.95673277      -1.85995964       0.51622400       0.00000000
Si       1.06679953      -2.83600758       1.83417630       0.00000000
Si       3.12810357       1.91080073      -0.01187292       0.00000000
Si       2.65284281       1.18271917      -2.27327008       0.00000000
