10
Lattice="16.2900001489832 0.0 0.0 0.0 16.2900001489832 0.0 0.0 0.0 29.17179006505858" Properties=species:S:1:pos:R:3:initial_magmoms:R:1 pbc="T T T"
Si      -1.37022864       1.31069341      -1.41532774       0.00000000
Si       1.37291290      -1.33211476      -1.41340240       0.00000000
Si       1.38124850       1.42982218       1.30707123       0.00000000
Si      -1.38202260      -1.43373178       1.30254960       0.00000000
Si       2.64234049      -0.04689891       2.62726976       0.00000000
Si      -2.76014032       2.62342307      -0.03809836       0.00000000
Si      -2.68569502      -2.71309952      -0.19025841       0.00000000
Si      -2.69647900      -0.07270227       2.72059031       0.00000000
Si      -0.02851011       2.69609276       2.74701996       0.00000000
Si       2.73276628      -2.73437427      -0.08025159       0.00000000
