10
Lattice="16.2900001489832 0.0 0.0 0.0 16.2900001489832 0.0 0.0 0.0 29.17179006505858" Properties=species:S:1:pos:R:3:initial_magmoms:R:1 pbc="T T T"
Si      -1.28496010       1.30943419       1.49425493       0.00000000
Si       1.43699467      -1.34362984       1.31897332       0.00000000
Si       1.23933181       1.53192302      -1.34724953       0.00000000
Si      -1.33480245      -1.51458394      -1.27674132       0.00000000
Si      -2.48793426      -0.11175592      -2.72640425       0.00000000
Si       2.62756562       0.02854171      -2.60773341       0.00000000
Si      -2.59582293       2.66347530       0.13598430       0.00000000
Si      -2.69296020      -0.06429989       2.73998080       0.00000000
Si       0.08148910      -2.59907441       2.83951495       0.00000000
Si       2.75407376       0.01644476       2.73297957       0.00000000
