10
Lattice="16.2900001489832 0.0 0.0 0.0 16.2900001489832 0.0 0.0 0.0 29.17179006505858" Properties=species:S:1:pos:R:3:initial_magmoms:R:1 pbc="T T T"
Si      -1.35022191       1.24846561      -1.48563175       0.00000000
Si       1.40975860      -1.26627058      -1.43994873       0.00000000
Si       0.74855076       1.93160306       1.20604932       0.00000000
Si      -0.88077669      -1.86828383       1.22801567       0.00000000
Si      -2.68745173       2.69008175      -0.23836270       0.00000000
Si       2.67085059      -2.74299168      -0.11975020       0.00000000
Si       2.63823801       2.78436828      -0.00563016       0.00000000
Si      -2.66796889      -2.76879504      -0.02642964       0.00000000
Si       0.02851011      -2.69609276      -2.74701996       0.00000000
Si       0.03671326       2.67574655      -2.77304119       0.00000000
