10
Lattice="16.2900001489832 0.0 0.0 0.0 16.2900001489832 0.0 0.0 0.0 29.17179006505858" Properties=species:S:1:pos:R:3:initial_magmoms:R:1 pbc="T T T"
H        1.45898128       0.38607300       0.18885817       0.00000000
Si      -0.89309926      -0.84080836       1.97615540       0.00000000
Si      -1.25703415       1.97421770       0.20434839       0.00000000
Si      -0.29897037      -0.90297100      -2.17408600       0.00000000
Si      -0.51331419       2.84980521      -1.79333579       0.00000000
Si       0.58384990       0.24105942       3.39227078       0.00000000
Si       0.77779864      -2.94790359      -1.81177237       0.00000000
H        2.11895435      -2.25492698      -2.04570095       0.00000000
Si      -3.51794934       1.29334456      -0.31438438       0.00000000
Si       1.74711881       2.31127409      -2.41466575       0.00000000
