10
Lattice="16.2900001489832 0.0 0.0 0.0 16.2900001489832 0.0 0.0 0.0 29.17179006505858" Properties=species:S:1:pos:R:3:initial_magmoms:R:1 pbc="T T T"
Si       1.35985337      -1.40225950       1.33315081       0.00000000
Si      -1.33103636      -1.46465020      -1.31010801       0.00000000
Si      -1.37291290       1.33211476       1.41340240       0.00000000
Si       1.36141721       1.39805668      -1.36294979       0.00000000
Si      -2.64189919      -0.11060910      -2.66837864       0.00000000
Si      -2.74314154       2.64280817      -0.00192534       0.00000000
Si      -0.03741976      -2.68462786       2.74188572       0.00000000
Si       2.74279294       2.68791518       0.03226400       0.00000000
Si       2.65303504       0.03815118      -2.78543629       0.00000000
Si       2.69863075      -0.08910630       2.75475048       0.00000000
