10
Lattice="16.2900001489832 0.0 0.0 0.0 16.2900001489832 0.0 0.0 0.0 29.17179006505858" Properties=species:S:1:pos:R:3:initial_magmoms:R:1 pbc="T T T"
Si      -1.28831095      -1.34390872      -1.46544487       0.00000000
Si       1.33543792      -1.40105404       1.39525755       0.00000000
Si      -1.42345279       1.38865735       1.33224648       0.00000000
Si       1.37016820       1.29870397      -1.48271457       0.00000000
Si      -2.65193220      -2.66198150      -0.10207209       0.00000000
Si      -2.64127203       2.72420930      -0.17800626       0.00000000
Si       2.73162125       2.66258423      -0.17097586       0.00000000
Si      -0.00742824       2.74820448       2.65186158       0.00000000
Si       2.68227884      -2.75527434      -0.02088700       0.00000000
Si       0.08252514      -2.73600327      -2.79028172       0.00000000
