10
Lattice="16.2900001489832 0.0 0.0 0.0 16.2900001489832 0.0 0.0 0.0 29.17179006505858" Properties=species:S:1:pos:R:3:initial_magmoms:R:1 pbc="T T T"
Si       0.12085714      -0.22913514       2.36390684       0.00000000
Si      -0.74855076      -1.93160306      -1.20604932       0.00000000
Si       1.88968726       0.85276522      -1.21167947       0.00000000
Si      -1.74930329       1.71077582      -0.17683939       0.00000000
Si      -2.09877267      -0.68313745      -2.69168107       0.00000000
Si       0.67186802       2.18831717      -2.72193222       0.00000000
H        0.89638821       2.72627813       2.14648948       0.00000000
Si      -2.02124856       0.53693469       3.12368611       0.00000000
Si      -3.43600249       0.75847870      -1.44441201       0.00000000
Si      -0.27562517      -2.46922193       2.91796664       0.00000000
