10
Lattice="16.2900001489832 0.0 0.0 0.0 16.2900001489832 0.0 0.0 0.0 29.17179006505858" Properties=species:S:1:pos:R:3:initial_magmoms:R:1 pbc="T T T"
Si       1.09700119      -1.76054177       1.04017852       0.00000000
Si       1.35594703       1.55390311       1.06576218       0.00000000
Si      -2.10698120       1.03195522       0.39839914       0.00000000
Si       0.54628516      -0.49172994      -2.27507874       0.00000000
Si       3.27792270      -1.22313466       0.42611234       0.00000000
Si      -3.01925379       0.60282775      -1.76748959       0.00000000
Si      -1.20454777       0.62925013      -3.33252695       0.00000000
Si       1.01911870      -1.17007813       3.31187333       0.00000000
Si       0.36474939      -2.86172949      -2.28059220       0.00000000
Si      -1.41434668       3.36351036       0.56648699       0.00000000
