10
Lattice="16.2900001489832 0.0 0.0 0.0 16.2900001489832 0.0 0.0 0.0 29.17179006505858" Properties=species:S:1:pos:R:3:initial_magmoms:R:1 pbc="T T T"
Si       1.33877737       1.31315320       1.42159967       0.00000000
Si      -1.39727313      -1.28236836       1.40873491       0.00000000
Si      -1.35985337       1.40225950      -1.33315081       0.00000000
Si       1.34814412      -1.35538014      -1.40453418       0.00000000
Si      -2.69088974      -0.06239070      -2.64325881       0.00000000
Si       2.69320943       2.69228090       0.05986051       0.00000000
Si      -0.09042579       2.68747535       2.70752135       0.00000000
Si      -0.07486884      -2.72306477       2.71105114       0.00000000
Si       2.72850987      -2.71744032      -0.03984867       0.00000000
Si      -2.76491459      -2.68559875       0.08448150       0.00000000
