10
Lattice="16.2900001489832 0.0 0.0 0.0 16.2900001489832 0.0 0.0 0.0 29.17179006505858" Properties=species:S:1:pos:R:3:initial_magmoms:R:1 pbc="T T T"
Si      -0.86789863       1.08756928      -1.90334261       0.00000000
Si       0.73508626       1.85189609       1.26751428       0.00000000
Si      -1.82384471      -0.95151520       1.20461990       0.00000000
Si       1.87406678      -1.49767003       0.12613882       0.00000000
Si      -2.37107468       2.47482569      -0.71710094       0.00000000
Si      -1.01413396      -3.18619371       1.41903256       0.00000000
Si       1.86261491       0.78439609       3.01983454       0.00000000
H       -3.27722223       1.60153507       0.13521125       0.00000000
Si      -1.91415647       0.52564572       3.07167281       0.00000000
Si       2.39459744      -2.08759610      -2.06512936       0.00000000
