10
Lattice="16.2900001489832 0.0 0.0 0.0 16.2900001489832 0.0 0.0 0.0 29.17179006505858" Properties=species:S:1:pos:R:3:initial_magmoms:R:1 pbc="T T T"
Si       2.27980670      -0.22027338      -0.41674819       0.00000000
Si       0.12443605      -0.31381056       2.31058080       0.00000000
Si      -1.46819654       1.69342697      -0.68547872       0.00000000
Si      -0.74005796      -1.66579913      -1.52116299       0.00000000
Si       0.42489696      -2.60397281       2.01509974       0.00000000
Si      -0.34504338       1.91387954      -2.70728798       0.00000000
Si       2.44785434      -2.26595531       0.79857775       0.00000000
Si      -3.53769445       0.52041663      -0.51170237       0.00000000
Si      -0.80691864      -0.31824144      -3.51172926       0.00000000
Si      -3.05298549      -1.77111398      -0.90768025       0.00000000
