10
Lattice="10.86 0.0 0.0 0.0 10.86 0.0 0.0 0.0 10.86" Properties=species:S:1:pos:R:3:initial_magmoms:R:1 pbc="T T T"
Si      -1.34363178       1.28571540      -1.30550232       0.00000000
Si       1.37136822      -1.42928460      -1.30550232       0.00000000
Si      -1.34363178      -1.42928460       1.40949768       0.00000000
Si       1.67845644       1.20451518       1.56265626       0.00000000
Si      -0.03317730       2.54615958       2.74382244       0.00000000
Si       0.01386822       2.64321540      -2.66300232       0.00000000
Si       2.70344496       2.61481650       0.06671298       0.00000000
Si      -2.70113178       2.64321540       0.05199768       0.00000000
Si      -2.70113178      -0.07178460      -2.66300232       0.00000000
Si       2.72886822      -0.07178460      -2.66300232       0.00000000
