10
Lattice="16.28999089631971 0.0 0.0 0.0 16.28999089631971 0.0 0.0 0.0 34.26581377546328" Properties=species:S:1:pos:R:3:initial_magmoms:R:1 pbc="T T T"
Si       0.19323198       0.18148689      -2.26990584       0.00000000
Si       0.81855621      -1.99531323       0.82721147       0.00000000
Si      -2.23390471       0.05810643       0.77639524       0.00000000
Si       0.85792914       1.99084977       1.16198866       0.00000000
Si      -0.69589251       2.37270366      -2.13027257       0.00000000
Si       3.45673800      -0.23887656       1.05453101       0.00000000
Si       2.47577049       0.68292567      -2.70254624       0.00000000
Si      -0.93346587      -1.72854819      -3.22510019       0.00000000
Si      -0.48941676      -3.85243839       0.23376151       0.00000000
Si      -1.95723047       3.36095119      -0.35324647       0.00000000
