10
Lattice="16.28999089631971 0.0 0.0 0.0 16.28999089631971 0.0 0.0 0.0 34.26581377546328" Properties=species:S:1:pos:R:3:initial_magmoms:R:1 pbc="T T T"
Si      -1.35562122       1.35432219      -1.35812629       0.00000000
Si       1.35804843       1.35698887       1.35733817       0.00000000
Si      -1.35786924      -1.35765397       1.35771510       0.00000000
Si       1.35775521      -1.35744220      -1.35977105       0.00000000
Si      -2.71384884      -2.71575127       0.00027413       0.00000000
Si      -2.71472850      -0.00042238       2.71488194       0.00000000
Si      -2.71557558       2.71403872      -0.00041119       0.00000000
Si      -0.00011403       2.71470661       2.71491621       0.00000000
Si       2.71529865       2.71480435      -0.00113077       0.00000000
Si       2.71542897      -0.00061035       2.71522460       0.00000000
