10
Lattice="16.28999089631971 0.0 0.0 0.0 16.28999089631971 0.0 0.0 0.0 34.26581377546328" Properties=species:S:1:pos:R:3:initial_magmoms:R:1 pbc="T T T"
Si      -1.35469269       1.35412417       1.35288362       0.00000000
Si       1.35821133       1.35516673      -1.35761230       0.00000000
Si      -1.35640314      -1.35996226      -1.35764657       0.00000000
Si       1.36001952      -1.36194940       1.36189553       0.00000000
Si      -2.68710066      -0.00478437       2.71580712       0.00000000
Si      -0.01355328       2.70849106       2.69946232       0.00000000
Si      -2.71312068       2.71156987      -0.00058252       0.00000000
Si       2.71492398       2.71137439      -0.00099371       0.00000000
Si       0.00109143       2.71248211      -2.71484768       0.00000000
Si      -2.71363544      -0.00336226      -2.71453928       0.00000000
