10
Lattice="16.28999089631971 0.0 0.0 0.0 16.28999089631971 0.0 0.0 0.0 34.26581377546328" Properties=species:S:1:pos:R:3:initial_magmoms:R:1 pbc="T T T"
Si       1.69901442       1.15712757       1.03804914       0.00000000
Si      -0.16303032      -2.26269729       0.71992515       0.00000000
Si       0.75582342      -0.08083098      -2.26980304       0.00000000
Si      -1.69596819       1.63142721       0.83108351       0.00000000
Si       0.60175260       1.38939039       3.10307652       0.00000000
Si      -1.69490934      -1.73084508       2.64987966       0.00000000
Si      -1.71761760      -3.07276641      -0.79602956       0.00000000
Si       3.60113256      -0.02979441       0.25747347       0.00000000
Si       3.11192757       0.56887938      -2.00612745       0.00000000
Si      -1.64625111       3.48057027      -0.69189570       0.00000000
