10
Lattice="16.28999089631971 0.0 0.0 0.0 16.28999089631971 0.0 0.0 0.0 34.26581377546328" Properties=species:S:1:pos:R:3:initial_magmoms:R:1 pbc="T T T"
Si       1.56258567       1.05544539      -1.57016326       0.00000000
Si      -0.91841391      -1.67814302      -1.57386397       0.00000000
Si       1.46383569      -0.13171768       2.03007927       0.00000000
Si      -2.05656363       1.09015938       1.34702416       0.00000000
Si      -2.60695875      -2.68345889      -0.24952380       0.00000000
Si      -0.10047672       0.10886607       3.80970957       0.00000000
Si      -2.30946588      -0.35811610      -3.04496471       0.00000000
Si       2.52281601       2.89716021      -0.26117418       0.00000000
Si       0.36408150       2.35515933      -3.06130951       0.00000000
Si      -2.71735933       2.77638615      -0.32549115       0.00000000
