10
Lattice="16.28999089631971 0.0 0.0 0.0 16.28999089631971 0.0 0.0 0.0 34.26581377546328" Properties=species:S:1:pos:R:3:initial_magmoms:R:1 pbc="T T T"
Si      -1.23097014       1.39189905      -1.42260088       0.00000000
Si      -1.35726651      -1.33981992       1.35739643       0.00000000
Si       1.36226754       1.37235105       1.35719083       0.00000000
Si       1.32289461      -1.36677987      -1.43220217       0.00000000
Si       0.66362202       1.94105124      -2.82781326       0.00000000
Si       2.48297067       0.32355198      -2.57808691       0.00000000
Si      -2.70593190      -2.70350469      -0.03541374       0.00000000
Si       0.00241092      -2.69998605       2.71572831       0.00000000
Si      -2.69037495       2.73197961      -0.01417235       0.00000000
Si      -2.71168227       0.01466100       2.71720174       0.00000000
