10
Lattice="16.28999089631971 0.0 0.0 0.0 16.28999089631971 0.0 0.0 0.0 34.26581377546328" Properties=species:S:1:pos:R:3:initial_magmoms:R:1 pbc="T T T"
Si       1.35557235       1.35671265      -1.35798922       0.00000000
Si      -1.35754344      -1.35747828      -1.35672139       0.00000000
Si      -1.35773892       1.35770634       1.35696125       0.00000000
Si       1.35803214      -1.35759231       1.35682419       0.00000000
Si      -0.00032580       2.71477737       2.71320292       0.00000000
Si      -0.00087966      -2.71480995       2.71347704       0.00000000
Si      -0.00312768      -2.71195920      -2.71652670       0.00000000
Si      -2.71403780      -0.00035838       2.71447075       0.00000000
Si       2.71446786      -2.71446786      -0.00013706       0.00000000
Si       0.00058644       2.71538010      -2.71381970       0.00000000
