10
Lattice="16.28999089631971 0.0 0.0 0.0 16.28999089631971 0.0 0.0 0.0 34.26581377546328" Properties=species:S:1:pos:R:3:initial_magmoms:R:1 pbc="T T T"
Si      -1.77251490       1.15986429      -1.02358896       0.00000000
Si       0.33036120      -1.61730378      -1.70109301       0.00000000
Si       1.88139726       1.40665779       0.50672314       0.00000000
Si      -0.82292193      -0.94374486       2.05625837       0.00000000
Si       0.64391112      -0.07905537      -3.46629739       0.00000000
Si      -3.24900792      -0.60373998      -1.63228722       0.00000000
Si       2.45952936       0.75536730       2.72697778       0.00000000
Si      -1.83153357      -2.35405161      -2.29968285       0.00000000
Si       3.61999638       0.71174268      -0.96328110       0.00000000
Si      -3.08934963      -0.34471269       2.22840991       0.00000000
