10
Lattice="16.28999089631971 0.0 0.0 0.0 16.28999089631971 0.0 0.0 0.0 34.26581377546328" Properties=species:S:1:pos:R:3:initial_magmoms:R:1 pbc="T T T"
Si      -0.70605747      -2.12889123       0.70145587       0.00000000
Si       1.26636831      -1.37782449      -1.52921559       0.00000000
Si      -1.44391302       1.32626664      -1.52554915       0.00000000
Si       1.65754008       1.19180898       1.56457793       0.00000000
Si       0.10598274      -1.52805087       3.06274868       0.00000000
Si       2.67302610      -2.79101457      -0.09940518       0.00000000
Si      -2.75372676       2.72599599      -0.08312891       0.00000000
Si       2.76698682       2.75609991       0.05050784       0.00000000
Si       2.61884556      -0.02469564      -2.91424056       0.00000000
Si      -2.82113478      -2.74605417      -0.22636009       0.00000000
