10
Lattice="16.28999089631971 0.0 0.0 0.0 16.28999089631971 0.0 0.0 0.0 34.26581377546328" Properties=species:S:1:pos:R:3:initial_magmoms:R:1 pbc="T T T"
Si      -0.63164475       2.16255356      -0.71382583       0.00000000
Si      -1.76873562      -1.12875039      -1.09551294       0.00000000
Si       2.16303507      -0.21753666      -0.97421190       0.00000000
Si       0.48900951      -0.30595878       2.35269209       0.00000000
Si       3.35231910       1.27543111       0.49634059       0.00000000
Si       0.12895164       2.29414418      -2.98760371       0.00000000
Si       2.76941403       0.30530508       2.54088004       0.00000000
Si       1.97125290       0.77220857      -3.12662019       0.00000000
Si      -3.07087351      -2.16430569       0.52159451       0.00000000
Si       2.70102861      -2.61936684      -0.91482921       0.00000000
