10
Lattice="16.28999089631971 0.0 0.0 0.0 16.28999089631971 0.0 0.0 0.0 34.26581377546328" Properties=species:S:1:pos:R:3:initial_magmoms:R:1 pbc="T T T"
Si       2.16420795      -0.53980173      -0.68463134       0.00000000
Si       0.33220197       2.18918052       0.78112393       0.00000000
Si      -0.66619584      -1.12565529       1.95500283       0.00000000
Si      -1.64716335      -0.20385306      -1.80207442       0.00000000
Si      -1.94237073       2.62264180       0.82642336       0.00000000
Si       1.49118660      -1.61564220       2.70840570       0.00000000
Si       2.20379265       0.63148185      -2.71296306       0.00000000
Si      -0.72184248      -2.00222019      -2.92777556       0.00000000
Si      -0.21087405      -3.51616392      -1.11531860       0.00000000
Si       2.03706450      -2.86640469      -1.20187409       0.00000000
