10
Lattice="16.28999089631971 0.0 0.0 0.0 16.28999089631971 0.0 0.0 0.0 34.26581377546328" Properties=species:S:1:pos:R:3:initial_magmoms:R:1 pbc="T T T"
Si       1.20010059      -1.41955428      -1.58236190       0.00000000
Si      -1.10944674      -1.56429093       1.51407009       0.00000000
Si       1.96426449       0.73165167       1.30179326       0.00000000
Si      -1.50830739       1.29816737      -1.56125415       0.00000000
Si       2.45522880       2.56798427      -0.20347052       0.00000000
Si       2.63922435      -2.76468474      -0.22923842       0.00000000
Si      -2.76698682      -2.75609991      -0.05050784       0.00000000
Si       2.56712481      -0.06828249      -2.96056796       0.00000000
Si      -0.15530886       2.65288775      -2.95919733       0.00000000
Si      -0.14814126      -2.78079555      -2.96474840       0.00000000
