10
Lattice="16.28999089631971 0.0 0.0 0.0 16.28999089631971 0.0 0.0 0.0 34.26581377546328" Properties=species:S:1:pos:R:3:initial_magmoms:R:1 pbc="T T T"
Si      -2.14962840       0.44385363      -1.05840305       0.00000000
Si      -0.19732077      -1.20778947       2.12194597       0.00000000
Si       0.93356361       2.21869800       0.59728773       0.00000000
Si       1.93750002      -1.41625260      -1.05319464       0.00000000
Si       0.97507053       1.81148058       2.90831257       0.00000000
Si       2.00114505      -2.05966036       2.36605576       0.00000000
Si      -0.84523923       0.56312901       3.60219569       0.00000000
Si      -3.07615473       2.12889123       0.64625361       0.00000000
Si       3.60720873       0.33156666      -1.26615679       0.00000000
Si       3.25448136       2.08914363       0.30931767       0.00000000
