10
Lattice="16.28999089631971 0.0 0.0 0.0 16.28999089631971 0.0 0.0 0.0 34.26581377546328" Properties=species:S:1:pos:R:3:initial_magmoms:R:1 pbc="T T T"
Si      -0.93294459       2.09879057      -0.35787236       0.00000000
Si      -1.89402201      -1.37597136       0.10780031       0.00000000
Si       1.35340578      -1.00604175      -1.64578796       0.00000000
Si       0.98243361      -0.23925449       2.16402441       0.00000000
Si       1.27764099      -3.06574935      -0.46447337       0.00000000
Si      -3.15535997      -0.38772383       1.88482641       0.00000000
Si      -1.00489752      -3.56718813      -0.03183296       0.00000000
Si       0.83533491       3.42165260      -1.17768241       0.00000000
Si      -0.34020036      -1.75782525       3.40006154       0.00000000
Si      -1.53793890       3.07187372       1.81927587       0.00000000
