10
Lattice="16.28999089631971 0.0 0.0 0.0 16.28999089631971 0.0 0.0 0.0 34.26581377546328" Properties=species:S:1:pos:R:3:initial_magmoms:R:1 pbc="T T T"
Si      -1.23466797       0.71662968       1.84829770       0.00000000
Si      -2.18066085       0.00780291      -0.95200764       0.00000000
Si       1.01877660      -2.19872646      -0.36609616       0.00000000
Si       1.56149424       1.74283452      -0.75470497       0.00000000
Si      -1.49571522      -0.44890353      -3.13998387       0.00000000
Si       0.40837401       1.88815761       2.96584631       0.00000000
Si      -2.88433998      -2.18862666      -0.24894128       0.00000000
Si      -0.98222184      -3.37554864      -1.02951695       0.00000000
Si       0.44909901       2.63414187      -2.70737773       0.00000000
Si       1.68163299       3.19179744       1.35860601       0.00000000
