10
Lattice="16.28999089631971 0.0 0.0 0.0 16.28999089631971 0.0 0.0 0.0 34.26581377546328" Properties=species:S:1:pos:R:3:initial_magmoms:R:1 pbc="T T T"
Si      -0.65389689      -0.57958191      -2.25378037       0.00000000
Si      -2.07098028      -0.74362221       1.07833343       0.00000000
Si       0.51730524       1.45078740      -1.92674727       0.00000000
Si       1.76246397      -1.73784978       0.06341098       0.00000000
Si       0.70120305       2.10880566       1.15720309       0.00000000
Si       1.98120609       0.72143523       2.60137089       0.00000000
Si      -0.75370572      -1.99989072       2.60959469       0.00000000
Si       0.63680868      -3.34712259       1.28914368       0.00000000
Si       3.40550595      -0.56632185       1.18095960       0.00000000
Si       0.81647109      -2.44667655      -2.73689435       0.00000000
