10
Lattice="16.28999089631971 0.0 0.0 0.0 16.28999089631971 0.0 0.0 0.0 34.26581377546328" Properties=species:S:1:pos:R:3:initial_magmoms:R:1 pbc="T T T"
Si       1.33911945       1.34604270       1.36486638       0.00000000
Si      -1.37586969      -1.36746405       1.36407826       0.00000000
Si      -1.28000304       1.38737043      -1.44416779       0.00000000
Si       1.42429986      -1.28775708      -1.42041129       0.00000000
Si      -1.98120609      -0.72143523      -2.60137089       0.00000000
Si      -0.21874212      -2.45928501      -2.53795991       0.00000000
Si       2.71106325       2.69860140      -0.02401692       0.00000000
Si      -2.72748357       2.68771204      -0.01001248       0.00000000
Si       2.70005121      -0.01101204       2.72323253       0.00000000
Si      -0.01449810       2.70490865       2.72422624       0.00000000
