10
Lattice="16.28999089631971 0.0 0.0 0.0 16.28999089631971 0.0 0.0 0.0 34.26581377546328" Properties=species:S:1:pos:R:3:initial_magmoms:R:1 pbc="T T T"
Si      -1.35470898       1.35681039       1.35682419       0.00000000
Si       1.35783666       1.35684297      -1.35644726       0.00000000
Si       1.35474156      -1.35816246       1.35901720       0.00000000
Si      -1.35772263      -1.35799956      -1.35641300       0.00000000
Si       2.71393029       2.71357191       0.00000000       0.00000000
Si       2.71443528       0.00042354      -2.71351131       0.00000000
Si      -0.00074934      -2.71511946      -2.71320292       0.00000000
Si      -2.71531494      -0.00087966      -2.71381970       0.00000000
Si      -2.71562445       2.71376739       0.00106224       0.00000000
Si       2.71795392       0.00249237       2.71155816       0.00000000
