10
Lattice="16.28999089631971 0.0 0.0 0.0 16.28999089631971 0.0 0.0 0.0 34.26581377546328" Properties=species:S:1:pos:R:3:initial_magmoms:R:1 pbc="T T T"
Si       1.28529729      -1.37042883      -1.38077600       0.00000000
Si      -0.93781530      -1.75400946       1.32248982       0.00000000
Si      -1.43912376       1.34513046      -1.35312348       0.00000000
Si       1.14161949       1.57641588       1.42600690       0.00000000
Si      -2.12014350      -0.37186812       2.89299574       0.00000000
Si       2.43760302      -2.70383049       0.16478439       0.00000000
Si       2.64142350      -0.01733256      -2.73550997       0.00000000
Si      -2.63922435       2.76468474       0.22923842       0.00000000
Si      -0.07209954       2.69640225      -2.73132954       0.00000000
Si       2.74374099       2.69837334       0.01182171       0.00000000
