10
Lattice="16.28999089631971 0.0 0.0 0.0 16.28999089631971 0.0 0.0 0.0 34.26581377546328" Properties=species:S:1:pos:R:3:initial_magmoms:R:1 pbc="T T T"
Si      -2.15738244       0.48998691      -0.75340287       0.00000000
Si       1.17120213       2.03036931       0.32703311       0.00000000
Si       0.65389689       0.57958191       2.25378037       0.00000000
Si       1.47036798      -1.86709464      -0.48311398       0.00000000
Si      -2.57857668      -1.74008151      -1.50999246       0.00000000
Si      -1.49118660       1.61564220      -2.70840570       0.00000000
Si       2.18373966       2.07044271      -1.82619757       0.00000000
Si       2.41636086      -1.15826787       2.31719135       0.00000000
Si       0.67302135       1.07584047      -3.39303704       0.00000000
Si      -1.41708339      -0.16404030       3.33211380       0.00000000
