10
Lattice="16.28999089631971 0.0 0.0 0.0 16.28999089631971 0.0 0.0 0.0 34.26581377546328" Properties=species:S:1:pos:R:3:initial_magmoms:R:1 pbc="T T T"
Si       1.03343760       1.49435826      -1.43980374       0.00000000
Si      -1.45930707       1.23586854       1.41277686       0.00000000
Si       1.25880975      -1.47826441       1.38575140       0.00000000
Si      -1.64095686      -0.88895833      -1.55764394       0.00000000
Si      -0.77804298       3.21816606      -1.37785111       0.00000000
Si      -2.71344159       2.44673682      -0.14992673       0.00000000
Si       2.57331501       2.67978156      -0.07164643       0.00000000
Si       2.60296281      -0.11396973       2.77357246       0.00000000
Si      -0.11222181       2.60088909       2.77816408       0.00000000
Si      -0.27196155      -1.04265122      -3.66427308       0.00000000
