10
Lattice="16.28999089631971 0.0 0.0 0.0 16.28999089631971 0.0 0.0 0.0 34.26581377546328" Properties=species:S:1:pos:R:3:initial_magmoms:R:1 pbc="T T T"
Si       0.06766866       0.93222457       2.07637241       0.00000000
Si       0.69575520       2.00653378      -1.09513602       0.00000000
Si      -2.02797468      -0.78580746      -1.01711272       0.00000000
Si       1.66979246      -1.75491585       0.39100742       0.00000000
Si       1.96728533       0.57042693      -2.40443350       0.00000000
Si      -0.55291518      -1.27783062       3.00507928       0.00000000
Si      -0.76681917      -2.16454419      -2.40511881       0.00000000
Si       3.35833730      -0.74959999      -0.93333276       0.00000000
Si       2.22018758       2.01870241       1.98755537       0.00000000
Si       0.47223081      -3.51180864      -0.85654303       0.00000000
