10
Lattice="16.28999089631971 0.0 0.0 0.0 16.28999089631971 0.0 0.0 0.0 34.26581377546328" Properties=species:S:1:pos:R:3:initial_magmoms:R:1 pbc="T T T"
Si      -1.61893278       1.54132722       0.72934825       0.00000000
Si      -0.00177561       0.70410267      -2.29039680       0.00000000
Si      -0.51880392      -2.33844253      -0.41526763       0.00000000
Si       2.14265043       0.83380365       0.80322539       0.00000000
Si       2.30503730      -1.14106563       2.29903179       0.00000000
Si       1.31028615       3.18086685       0.41362287       0.00000000
Si       1.31875695      -1.03513176      -3.10088655       0.00000000
Si      -2.27141244       0.83399913      -2.71693789       0.00000000
Si      -0.61639731       3.41594784       1.67768945       0.00000000
Si      -2.62413981       2.59157610      -1.14146343       0.00000000
