10
Lattice="16.28999089631971 0.0 0.0 0.0 16.28999089631971 0.0 0.0 0.0 34.26581377546328" Properties=species:S:1:pos:R:3:initial_magmoms:R:1 pbc="T T T"
Si      -0.33671430       2.20905921      -0.72975944       0.00000000
Si       1.58601069      -0.56310458      -1.66730690       0.00000000
Si       1.36166481       0.51706578       1.87468372       0.00000000
Si      -1.74856860      -1.55336783       0.48599231       0.00000000
Si      -0.43044696      -3.31571777       1.31306672       0.00000000
Si      -0.79630407       1.82805240      -3.02567305       0.00000000
Si       3.22264974       1.09739703      -1.38852008       0.00000000
Si       1.86450453       2.99185887      -1.17144603       0.00000000
Si       2.60288855      -2.56342928      -1.03585613       0.00000000
Si       0.62475408       0.07403642      -3.75053248       0.00000000
