10
Lattice="16.28999089631971 0.0 0.0 0.0 16.28999089631971 0.0 0.0 0.0 34.26581377546328" Properties=species:S:1:pos:R:3:initial_magmoms:R:1 pbc="T T T"
Si       1.35342207      -1.35614250       1.35648153       0.00000000
Si       1.35637056       1.35861858      -1.35757803       0.00000000
Si      -1.35881406      -1.35663120      -1.35713258       0.00000000
Si      -1.35624024       1.35747828       1.36501372       0.00000000
Si       2.71085148      -0.01047447       2.71063298       0.00000000
Si       2.71344159      -2.71287307      -0.00065105       0.00000000
Si       2.71340901       0.00156384      -2.71429942       0.00000000
Si      -0.00208512      -2.71387490      -2.71405956       0.00000000
Si      -2.71516833      -2.71369083       0.00126784       0.00000000
Si       2.71340901       2.71635750       0.00082238       0.00000000
