10
Lattice="16.28999089631971 0.0 0.0 0.0 16.28999089631971 0.0 0.0 0.0 34.26581377546328" Properties=species:S:1:pos:R:3:initial_magmoms:R:1 pbc="T T T"
Si       1.67630616      -1.10918610      -1.07848283       0.00000000
Si      -1.87163955      -1.36585134       0.27532597       0.00000000
Si      -0.23211621       2.25781029       0.67205578       0.00000000
Si       2.06278641      -0.77656059       1.83041226       0.00000000
Si       1.75075146       2.48590287      -0.63539134       0.00000000
Si       0.13610295      -0.54147960       3.09447884       0.00000000
Si      -1.29533193       1.28282121       2.74318552       0.00000000
Si      -0.86643252      -2.41610022       2.14613765       0.00000000
Si       3.28819744       0.65722005      -0.55568901       0.00000000
Si       0.75072465      -3.25332477      -0.87360741       0.00000000
