10
Lattice="16.28999089631971 0.0 0.0 0.0 16.28999089631971 0.0 0.0 0.0 34.26581377546328" Properties=species:S:1:pos:R:3:initial_magmoms:R:1 pbc="T T T"
Si      -1.92668346       0.23508099       1.26406658       0.00000000
Si       1.08661372       2.07104544       0.03220988       0.00000000
Si       0.83236428      -2.34706320       0.38960252       0.00000000
Si      -2.06278641       0.77656059      -1.83041226       0.00000000
Si      -0.38648025      -0.33262551      -2.90889509       0.00000000
Si       1.22541103       1.43378064      -2.38610128       0.00000000
Si       1.58088978      -1.20115944       2.53913249       0.00000000
Si      -2.92921893      -1.63953963       0.31572538       0.00000000
Si      -1.31028615      -3.18086685      -0.41362287       0.00000000
Si       3.33002528       1.51803252       0.34766114       0.00000000
