10
Lattice="16.28999089631971 0.0 0.0 0.0 16.28999089631971 0.0 0.0 0.0 34.26581377546328" Properties=species:S:1:pos:R:3:initial_magmoms:R:1 pbc="T T T"
Si       2.16731934       0.36623178       0.67147326       0.00000000
Si       0.09185931       0.72244521      -2.18119159       0.00000000
Si      -0.25756119      -2.21363181       0.65841798       0.00000000
Si      -2.11926384       0.78038874       0.60486048       0.00000000
Si      -0.91067616      -1.15217541      -3.12953279       0.00000000
Si       0.20202858      -1.83262500       2.95433158       0.00000000
Si       2.40324741      -1.04982534       2.51264500       0.00000000
Si      -2.52620433      -2.63094903       0.31127083       0.00000000
Si       3.59943255      -0.71379522      -0.90612569       0.00000000
Si      -3.18868605       1.48116825      -1.43686917       0.00000000
