10
Lattice="16.28999089631971 0.0 0.0 0.0 16.28999089631971 0.0 0.0 0.0 34.26581377546328" Properties=species:S:1:pos:R:3:initial_magmoms:R:1 pbc="T T T"
Si       1.21773844       1.22572476       1.54607438       0.00000000
Si      -0.23592807       1.41605712      -1.84117173       0.00000000
Si       1.35814521      -1.89446184      -0.21707405       0.00000000
Si      -2.20121883      -0.78279966       0.44168659       0.00000000
Si       0.25819212      -0.17415639       3.21540296       0.00000000
Si      -2.66080860      -1.16380647      -1.85422702       0.00000000
Si      -0.27849384      -3.55496344      -0.49586087       0.00000000
Si      -2.40324741       1.04982534      -2.51264500       0.00000000
Si       2.00913434      -1.73812671      -2.48225120       0.00000000
Si       1.19618514       0.33603012      -3.41877068       0.00000000
