10
Lattice="16.28999089631971 0.0 0.0 0.0 16.28999089631971 0.0 0.0 0.0 34.26581377546328" Properties=species:S:1:pos:R:3:initial_magmoms:R:1 pbc="T T T"
Si       1.96330338       1.15435827       0.71910277       0.00000000
Si      -0.59750091       0.54828882      -2.31109337       0.00000000
Si       0.48669633      -2.03224266       1.31316952       0.00000000
Si      -2.11810725       0.39446235       1.29997717       0.00000000
Si       3.18418563      -0.04909806      -1.11843679       0.00000000
Si       2.42315379      -2.34973476      -1.28771000       0.00000000
Si      -2.31590043       2.76371253       1.05107016       0.00000000
Si       1.50977349       3.46074534       0.20867892       0.00000000
Si       0.13608666      -1.30359096       3.61727265       0.00000000
Si      -2.73952188      -0.34766118      -2.72372253       0.00000000
