10
Lattice="16.28999089631971 0.0 0.0 0.0 16.28999089631971 0.0 0.0 0.0 34.26581377546328" Properties=species:S:1:pos:R:3:initial_magmoms:R:1 pbc="T T T"
Si       1.35703800      -1.35710361       1.35706405       0.00000000
Si      -1.35663120      -1.35793440      -1.35689272       0.00000000
Si       1.35643136       1.35860229      -1.35747524       0.00000000
Si      -1.35837423       1.35865116       1.35761230       0.00000000
Si      -0.00061902      -2.71318095      -2.71320292       0.00000000
Si      -2.71412577       0.00135207       2.71402530       0.00000000
Si       2.71446853      -2.71435383       0.00030839       0.00000000
Si      -0.00058644      -2.71415835       2.71536166       0.00000000
Si      -2.71520091      -2.71459818       0.00006853       0.00000000
Si       2.71480899       2.71560816       0.00017133       0.00000000
