10
Lattice="16.28999089631971 0.0 0.0 0.0 16.28999089631971 0.0 0.0 0.0 34.26581377546328" Properties=species:S:1:pos:R:3:initial_magmoms:R:1 pbc="T T T"
Si      -1.35283563       1.35557235      -1.36172420       0.00000000
Si       1.36070370      -1.35993807      -1.36038783       0.00000000
Si       1.34809524       1.34851878       1.39492779       0.00000000
Si      -1.35563751      -1.34716671       1.39790892       0.00000000
Si      -2.71406061       2.71182888      -0.00294686       0.00000000
Si      -2.70894555      -2.71881729       0.00380351       0.00000000
Si      -2.71164969      -0.00237834      -2.71779454       0.00000000
Si       0.00291591       2.71287144      -2.71813720       0.00000000
Si       2.71790505       2.71316466       0.00082238       0.00000000
Si       2.71823085      -2.71816569      -0.00280980       0.00000000
