10
Lattice="16.28999089631971 0.0 0.0 0.0 16.28999089631971 0.0 0.0 0.0 34.26581377546328" Properties=species:S:1:pos:R:3:initial_magmoms:R:1 pbc="T T T"
Si      -0.13273092      -1.03816170       2.07503604       0.00000000
Si      -2.24341156       0.55301292      -0.31545126       0.00000000
Si       0.87047244       2.23125759      -0.20994676       0.00000000
Si       0.34756344      -1.60715511      -1.79528978       0.00000000
Si       1.45754775       0.92651004      -2.18002656       0.00000000
Si      -2.10461424      -0.08425188      -2.73376242       0.00000000
Si      -0.69682104       0.91281015       3.32717811       0.00000000
Si      -3.33002528      -1.51803252      -0.34766114       0.00000000
Si       2.69490357      -2.06757567      -1.56581150       0.00000000
Si       1.96103907      -1.98560439       2.51637997       0.00000000
