10
Lattice="16.28999089631971 0.0 0.0 0.0 16.28999089631971 0.0 0.0 0.0 34.26581377546328" Properties=species:S:1:pos:R:3:initial_magmoms:R:1 pbc="T T T"
Si       1.34658027       1.92409335       0.12599547       0.00000000
Si       1.02180654      -1.99340730       0.81175758       0.00000000
Si      -1.74591333       0.54017640       1.55179678       0.00000000
Si      -0.73138842      -0.35297172      -2.26247015       0.00000000
Si       3.37235580       0.83965176       0.31695895       0.00000000
Si       0.62270154       2.85635376       2.14534953       0.00000000
Si      -0.75673566      -3.23480304       1.59754166       0.00000000
Si      -1.69829766       2.89655748       1.59418361       0.00000000
Si      -3.74696064      -0.39794841       0.79390508       0.00000000
Si      -2.44978794       1.24888914      -2.71604698       0.00000000
