10
Lattice="16.28999089631971 0.0 0.0 0.0 16.28999089631971 0.0 0.0 0.0 34.26581377546328" Properties=species:S:1:pos:R:3:initial_magmoms:R:1 pbc="T T T"
Si       0.04549797       1.35198855      -1.89051453       0.00000000
Si       1.39422852       1.27780389       1.49437550       0.00000000
Si      -1.27325898      -1.30363983       1.60724030       0.00000000
Si      -0.12013875      -1.44896292      -2.11331098       0.00000000
Si      -1.68163299      -3.19179744      -1.35860601       0.00000000
Si      -2.91630096      -2.47516776       0.48969169       0.00000000
Si       3.27843485       2.18841489       0.22067196       0.00000000
Si      -1.51726689       3.11833184      -2.04638981       0.00000000
Si       0.01350441       2.68271865       3.00363467       0.00000000
Si       2.70712107      -0.04365720       3.01464771       0.00000000
