10
Lattice="16.28999089631971 0.0 0.0 0.0 16.28999089631971 0.0 0.0 0.0 34.26581377546328" Properties=species:S:1:pos:R:3:initial_magmoms:R:1 pbc="T T T"
Si       2.16716801      -0.67732191       0.50339935       0.00000000
Si       0.95954632       1.39988115      -1.66932858       0.00000000
Si      -0.76103184      -2.30063670      -0.16927321       0.00000000
Si      -1.22088225       1.20345633       1.83753956       0.00000000
Si      -0.25819212       0.17415639      -3.21540296       0.00000000
Si      -3.18418563       0.04909806       1.11843679       0.00000000
Si       2.77216232      -1.65040506      -1.67374888       0.00000000
Si      -2.45941095      -0.60864327      -2.77371638       0.00000000
Si       3.62878826       1.18227933       0.67846349       0.00000000
Si       1.09995309      -1.72030545      -3.43247702       0.00000000
