10
Lattice="16.28999089631971 0.0 0.0 0.0 16.28999089631971 0.0 0.0 0.0 34.26581377546328" Properties=species:S:1:pos:R:3:initial_magmoms:R:1 pbc="T T T"
Si       0.28981539      -2.26999521       0.22707967       0.00000000
Si       2.26706301       0.69952518      -0.09330586       0.00000000
Si      -1.20818043       1.16517483      -1.68046498       0.00000000
Si      -0.99647559       0.57422250       2.11993563       0.00000000
Si       0.09979254       3.02229999      -1.08701502       0.00000000
Si       0.40304718      -2.59222770      -2.15795936       0.00000000
Si      -3.32548149       1.39434255      -0.57467228       0.00000000
Si       0.85084299       1.52583543       3.33417318       0.00000000
Si       2.31678009       2.54866824      -1.61628507       0.00000000
Si       2.26812186      -2.66274711       1.72549028       0.00000000
