10
Lattice="16.28999089631971 0.0 0.0 0.0 16.28999089631971 0.0 0.0 0.0 34.26581377546328" Properties=species:S:1:pos:R:3:initial_magmoms:R:1 pbc="T T T"
Si      -1.80954044       1.51830945      -0.26200791       0.00000000
Si       1.84731858       0.95161293       1.21423755       0.00000000
Si       0.99647559      -0.57422250      -2.11993563       0.00000000
Si      -1.11250926      -1.80918369       1.18682488       0.00000000
Si       0.38791377       2.29169349       2.62266608       0.00000000
Si      -2.35269044      -0.42596721       2.63917193       0.00000000
Si       1.28629098      -2.84421771      -1.89285596       0.00000000
Si      -2.32900590       0.82012005      -2.69460792       0.00000000
Si      -1.13940405       3.43502343       1.20386870       0.00000000
Si      -0.21170484       0.59095233      -3.80040061       0.00000000
