10
Lattice="16.28999089631971 0.0 0.0 0.0 16.28999089631971 0.0 0.0 0.0 34.26581377546328" Properties=species:S:1:pos:R:3:initial_magmoms:R:1 pbc="T T T"
Si       1.35741312       1.35707103       1.35624167       0.00000000
Si      -1.35629888      -1.35806472       1.35750950       0.00000000
Si      -1.35724208       1.35755973      -1.35733817       0.00000000
Si       1.35773892      -1.35770634      -1.35696125       0.00000000
Si       2.71331127      -0.00099369      -2.71495047       0.00000000
Si       0.00019548      -2.71518462      -2.71368264       0.00000000
Si       0.00109143       2.71474479      -2.71495047       0.00000000
Si       2.71666701       0.00058644       2.71340851       0.00000000
Si      -2.71501497       2.71507059      -0.00003427       0.00000000
Si       2.71523349       2.71485882       0.00034266       0.00000000
