10
Lattice="16.28999089631971 0.0 0.0 0.0 16.28999089631971 0.0 0.0 0.0 34.26581377546328" Properties=species:S:1:pos:R:3:initial_magmoms:R:1 pbc="T T T"
Si      -1.23995310      -1.54212543      -1.31344364       0.00000000
Si       1.42905817       1.24673886      -1.44930767       0.00000000
Si      -1.53478420       1.39149180       1.28551699       0.00000000
Si       1.33565131      -1.65830571       1.47881055       0.00000000
Si      -2.11470820      -0.41091525       2.75233450       0.00000000
Si      -0.57726221      -2.23959807       2.83203683       0.00000000
Si       3.49788817       0.20929392       1.22493500       0.00000000
Si      -2.64934600      -0.11018556      -2.73712047       0.00000000
Si       0.06523982       2.62979244      -2.75850235       0.00000000
Si       2.77839145      -0.09532908      -2.79235699       0.00000000
