10
Lattice="16.28999089631971 0.0 0.0 0.0 16.28999089631971 0.0 0.0 0.0 34.26581377546328" Properties=species:S:1:pos:R:3:initial_magmoms:R:1 pbc="T T T"
Si      -2.22148426       0.63537516       0.25839865       0.00000000
Si       0.75312580       0.94807800      -2.02336317       0.00000000
Si       0.60330667      -2.12068107       0.84636607       0.00000000
Si       0.91278409       1.20710529       1.83733396       0.00000000
Si      -1.86919672       2.90494683       0.42338863       0.00000000
Si      -1.36894660      -2.50351236       2.10460746       0.00000000
Si       2.17060015      -0.80223363      -2.69075880       0.00000000
Si      -2.85125566      -0.61496379       2.06331713       0.00000000
Si       3.17921179       0.60807312       1.66518242       0.00000000
Si      -1.27943452       1.46577420      -3.13737966       0.00000000
