10
Lattice="16.28999089631971 0.0 0.0 0.0 16.28999089631971 0.0 0.0 0.0 34.26581377546328" Properties=species:S:1:pos:R:3:initial_magmoms:R:1 pbc="T T T"
Si      -0.47190501       2.12745771      -1.03866593       0.00000000
Si      -1.88857626      -1.36609569      -0.63124517       0.00000000
Si      -0.02785590       0.00356751       2.42019578       0.00000000
Si       1.94228928      -1.15072560      -0.96602236       0.00000000
Si       1.31846373      -3.35396439      -0.43411384       0.00000000
Si      -1.08587022      -3.53623320      -0.40509068       0.00000000
Si       1.28011707       1.86069267       3.01364574       0.00000000
Si      -2.02736234      -1.17675702      -2.97598759       0.00000000
Si      -2.84233526       2.26909926      -1.32882900       0.00000000
Si       2.05920261      -0.41164830      -3.26430031       0.00000000
