10
Lattice="16.28999089631971 0.0 0.0 0.0 16.28999089631971 0.0 0.0 0.0 34.26581377546328" Properties=species:S:1:pos:R:3:initial_magmoms:R:1 pbc="T T T"
Si      -0.81855621       1.99531323      -0.82721147       0.00000000
Si       2.21698755      -0.47363175      -0.52927006       0.00000000
Si      -1.30797297      -1.85712516      -0.59344996       0.00000000
Si       2.63818179       1.75643667       0.22731954       0.00000000
Si      -0.09979254      -3.02229999       1.08701502       0.00000000
Si       2.16727047      -2.32277481       0.99370915       0.00000000
Si      -3.05246092       2.05341966      -0.05081623       0.00000000
Si      -1.28011707      -1.86069267      -3.01364574       0.00000000
Si      -3.42527403      -1.62795744       0.51234273       0.00000000
Si      -0.62532423       2.17680012      -3.09711731       0.00000000
