10
Lattice="16.28999089631971 0.0 0.0 0.0 16.28999089631971 0.0 0.0 0.0 34.26581377546328" Properties=species:S:1:pos:R:3:initial_magmoms:R:1 pbc="T T T"
Si       1.44573098      -0.90315018       1.68125309       0.00000000
Si      -1.51658012      -1.85108157      -0.08501353       0.00000000
Si       1.16539637       0.09132174      -2.09031861       0.00000000
Si      -1.00318218       2.06429228       0.80322539       0.00000000
Si       2.26158305      -2.64056013       0.33162473       0.00000000
Si      -3.54235565      -0.76663998      -0.27597702       0.00000000
Si       2.87964194      -1.59446520      -1.68790066       0.00000000
Si      -1.83723248      -2.44729557       2.16967827       0.00000000
Si       2.11914329       2.27541068      -2.22282458       0.00000000
Si       0.14359309      -1.93870548       3.29836055       0.00000000
