10
Lattice="16.28999089631971 0.0 0.0 0.0 16.28999089631971 0.0 0.0 0.0 34.26581377546328" Properties=species:S:1:pos:R:3:initial_magmoms:R:1 pbc="T T T"
Si      -1.30213789      -1.03555530       1.61710745       0.00000000
Si       0.81585207      -1.73740995      -1.34962836       0.00000000
Si       1.76873562       1.12875039       1.09551294       0.00000000
Si      -1.44573098       0.90315018      -1.68125309       0.00000000
Si       1.13709087       3.29130395       0.38168711       0.00000000
Si      -2.96231111      -0.94793139      -1.76626662       0.00000000
Si      -3.28296347      -1.54414539       0.48842518       0.00000000
Si       1.43391096      -0.69131502      -3.36915376       0.00000000
Si      -0.50098266      -3.24198693       1.90237051       0.00000000
Si       2.58836697      -2.89727424      -0.32603940       0.00000000
