10
Lattice="10.86 0.0 0.0 0.0 10.86 0.0 0.0 0.0 10.86" Properties=species:S:1:pos:R:3:initial_magmoms:R:1 pbc="T T T"
Si      -1.54498704      -1.32834090       1.05677574       0.00000000
Si       1.17001296      -1.32834090      -1.65822426       0.00000000
Si       1.47244224       1.53685290       1.20661116       0.00000000
Si      -1.54498704       1.38665910      -1.65822426       0.00000000
Si      -0.18748704      -2.68584090       2.41427574       0.00000000
Si       2.60093742       0.03125508       2.61573960       0.00000000
Si       2.52751296      -2.68584090      -0.30072426       0.00000000
Si       0.07701912       2.79889350       2.48396436       0.00000000
Si      -2.90248704       0.02915910       2.41427574       0.00000000
Si       2.35426338       0.02600970      -3.18817020       0.00000000
