10
Lattice="10.86 0.0 0.0 0.0 10.86 0.0 0.0 0.0 10.86" Properties=species:S:1:pos:R:3:initial_magmoms:R:1 pbc="T T T"
Si      -1.39542312       1.26204060       1.27735320       0.00000000
Si       1.12849518      -1.50559782       1.40912844       0.00000000
Si      -1.47244224      -1.53685290      -1.20661116       0.00000000
Si       2.41257072      -0.15019380       2.56516458       0.00000000
Si      -0.30242928       2.56480620       2.56516458       0.00000000
Si      -0.06960174       2.68124712      -2.46398196       0.00000000
Si       2.41257072      -2.86519380      -0.14983542       0.00000000
Si      -0.30242928      -2.86519380       2.56516458       0.00000000
Si      -3.01742928       2.56480620      -0.14983542       0.00000000
Si      -3.01742928      -0.15019380       2.56516458       0.00000000
