10
Lattice="10.86 0.0 0.0 0.0 10.86 0.0 0.0 0.0 10.86" Properties=species:S:1:pos:R:3:initial_magmoms:R:1 pbc="T T T"
Si      -1.71965928       1.27203180       1.06396506       0.00000000
Si       0.82716276       1.17047994      -1.95523440       0.00000000
Si      -1.39162212      -1.38792972      -1.65687762       0.00000000
Si      -0.23282754       2.59855908       2.31414654       0.00000000
Si       2.48217246       2.59855908      -0.40085346       0.00000000
Si       0.06960174      -2.68124712       2.46398196       0.00000000
Si      -2.94782754      -0.11644092       2.31414654       0.00000000
Si      -2.94782754       2.59855908      -0.40085346       0.00000000
Si       2.48217246      -0.11644092      -3.11585346       0.00000000
Si       1.00531020       1.20764286       3.69178098       0.00000000
