10
Lattice="16.2900001489832 0.0 0.0 0.0 16.2900001489832 0.0 0.0 0.0 28.97566389574794" Properties=species:S:1:pos:R:3:initial_magmoms:R:1 pbc="T T T"
Si       0.46156086       1.11031989      -0.90711213       0.00000000
H       -1.77797207      -0.36207946      -0.17912755       0.00000000
H       -2.03546810       0.33354753       0.08573899       0.00000000
Si      -0.13222593      -2.02293131       1.87814458       0.00000000
Si       1.76624327      -0.04897263      -2.42381428       0.00000000
Si       2.12654549       2.15498131       0.26335981       0.00000000
Si       1.93416059      -0.88503408       2.37568571       0.00000000
Si      -1.41586165      -2.93609985       0.02181867       0.00000000
H       -0.15346809       3.08140991       1.18901637       0.00000000
H        3.21502701       1.15065393      -0.13091205       0.00000000
