10
Lattice="16.2900001489832 0.0 0.0 0.0 16.2900001489832 0.0 0.0 0.0 28.97566389574794" Properties=species:S:1:pos:R:3:initial_magmoms:R:1 pbc="T T T"
Si      -0.37665250      -2.27638091       0.04230447       0.00000000
Si       1.97509736       0.71257348      -0.96233975       0.00000000
Si      -1.53839503       0.73370161      -1.63303944       0.00000000
Si      -0.91974644       0.87821020       2.00885380       0.00000000
H        1.71620039       2.03870981      -1.62889592       0.00000000
Si      -2.56689677      -1.96058297       0.87045792       0.00000000
Si      -3.39069837      -0.41023107      -0.66794700       0.00000000
Si      -1.47729124       3.03943710      -1.11292627       0.00000000
Si      -1.70950520       2.96176638       1.22882893       0.00000000
Si      -0.58378636      -2.96776110      -2.20377309       0.00000000
