10
Lattice="16.2900001489832 0.0 0.0 0.0 16.2900001489832 0.0 0.0 0.0 28.97566389574794" Properties=species:S:1:pos:R:3:initial_magmoms:R:1 pbc="T T T"
Si      -0.06977007      -0.35059338       2.30420274       0.00000000
Si       0.30200031       2.27629946      -0.49467253       0.00000000
Si       1.69119524      -1.22991130      -1.07867704       0.00000000
Si      -2.19199871      -0.25376562      -0.82580642       0.00000000
H        1.74143360       2.63495639      -0.26272234       0.00000000
Si       1.59083254       1.40824445       2.70902174       0.00000000
Si      -1.88349869       0.67893951      -2.90843226       0.00000000
Si       0.35373735      -2.55598247      -2.44676301       0.00000000
Si      -2.47002014      -0.11100006       2.68737692       0.00000000
Si      -3.47042163       0.86762984       0.77257813       0.00000000
