10
Lattice="16.2900001489832 0.0 0.0 0.0 16.2900001489832 0.0 0.0 0.0 28.97566389574794" Properties=species:S:1:pos:R:3:initial_magmoms:R:1 pbc="T T T"
Si       1.34317567      -1.35928648       1.34733940       0.00000000
Si      -1.32524038      -1.35101116      -1.37358845       0.00000000
Si       1.35011521       1.34524450      -1.36269360       0.00000000
Si      -1.37396377       1.35319402       1.35203345       0.00000000
Si      -2.68990256       0.08270433      -2.60661885       0.00000000
Si       2.68928354       2.67916745       0.03039547       0.00000000
Si      -0.04921209      -2.68703715       2.68928932       0.00000000
Si       2.69022836      -0.00009774       2.69931490       0.00000000
Si      -0.01544292       2.74119978      -2.65093713       0.00000000
Si       2.65764836      -0.02884959      -2.73721217       0.00000000
