10
Lattice="16.2900001489832 0.0 0.0 0.0 16.2900001489832 0.0 0.0 0.0 28.97566389574794" Properties=species:S:1:pos:R:3:initial_magmoms:R:1 pbc="T T T"
Si       0.29361096      -0.46742526       2.23683433       0.00000000
Si       2.24702633       0.21810681      -0.53784627       0.00000000
Si      -0.63218233       2.17038188      -0.69263427       0.00000000
Si      -1.41934771      -1.66329047      -0.98969278       0.00000000
Si       0.29152584       1.82910638      -2.82011444       0.00000000
Si      -1.85401379      -0.10005318       2.84767030       0.00000000
Si       2.02215917       0.13952385      -2.81049452       0.00000000
H       -0.80101189      -3.09053883       1.38526854       0.00000000
H       -2.75546982      -0.90168409       1.92966331       0.00000000
Si       0.49567212      -2.74978461       2.11307927       0.00000000
