10
Lattice="16.2900001489832 0.0 0.0 0.0 16.2900001489832 0.0 0.0 0.0 28.97566389574794" Properties=species:S:1:pos:R:3:initial_magmoms:R:1 pbc="T T T"
Si       1.24333426       0.51314804      -1.87834741       0.00000000
Si      -1.51081606      -1.52028381      -0.93252379       0.00000000
Si      -1.08906796       1.58874417       1.34638262       0.00000000
Si       1.60974523      -1.22901861       1.19872322       0.00000000
H       -1.89325640       0.46810944      -2.37073087       0.00000000
Si      -1.52132311      -2.90491753       0.95396578       0.00000000
Si       0.13994739      -2.43439717       2.56383339       0.00000000
Si       1.14390010       2.76706504      -1.97388018       0.00000000
Si      -0.21970323      -2.54728687      -2.58155780       0.00000000
Si      -2.58127921       0.30365049       2.59905620       0.00000000
