10
Lattice="16.2900001489832 0.0 0.0 0.0 16.2900001489832 0.0 0.0 0.0 28.97566389574794" Properties=species:S:1:pos:R:3:initial_magmoms:R:1 pbc="T T T"
Si      -1.29090106       1.34457661       1.40638890       0.00000000
Si      -1.68414167      -1.00263322      -1.27689579       0.00000000
Si       1.36555813      -1.39595527       1.28824353       0.00000000
Si       1.52707348       1.20956509      -1.30413639       0.00000000
Si      -0.36391860      -2.36947826      -2.73610240       0.00000000
Si      -2.59700069       2.58642848      -0.05111017       0.00000000
Si       2.72816777       2.54835875       0.15348119       0.00000000
Si      -3.45435969       0.76986541      -1.27680568       0.00000000
Si      -2.67445964      -2.65849544       0.04431828       0.00000000
Si       2.70472646      -0.06203232       2.68133260       0.00000000
