10
Lattice="16.2900001489832 0.0 0.0 0.0 16.2900001489832 0.0 0.0 0.0 28.97566389574794" Properties=species:S:1:pos:R:3:initial_magmoms:R:1 pbc="T T T"
H        0.57660085       0.06942798      -1.40931834       0.00000000
Si      -1.42781851      -1.79882327       0.36865737       0.00000000
Si      -1.49389075       1.78170248      -0.19158709       0.00000000
Si       1.82379584      -0.25324434       1.44171313       0.00000000
H        1.74307889       2.38596374      -0.98323120       0.00000000
Si       3.01415502      -1.54755001      -0.09898087       0.00000000
Si      -0.60575995       2.68473863      -2.18719901       0.00000000
Si      -3.19508805       0.59008897      -1.50328642       0.00000000
Si      -2.68491782      -1.11309571       2.23289364       0.00000000
Si       0.93647953      -0.99562852       3.51732686       0.00000000
