10
Lattice="16.2900001489832 0.0 0.0 0.0 16.2900001489832 0.0 0.0 0.0 28.97566389574794" Properties=species:S:1:pos:R:3:initial_magmoms:R:1 pbc="T T T"
Si       0.36305523      -2.10269693      -0.88677122       0.00000000
Si      -1.67531249      -0.06690303       1.69756824       0.00000000
Si      -0.60238792       1.67977595      -1.58751867       0.00000000
Si       2.26717706       0.34686297       1.04796284       0.00000000
H        0.27186381      -1.70494400       2.09572284       0.00000000
Si       1.54756630      -1.13929003       2.69775021       0.00000000
Si       1.91879912       2.61671616       1.09516419       0.00000000
Si       1.38986281       2.93456696      -1.17690454       0.00000000
Si       2.35900379      -1.82895977      -2.04826071       0.00000000
H       -1.43892829      -1.36847404      -3.13742694       0.00000000
