10
Lattice="16.2900001489832 0.0 0.0 0.0 16.2900001489832 0.0 0.0 0.0 28.97566389574794" Properties=species:S:1:pos:R:3:initial_magmoms:R:1 pbc="T T T"
Si      -1.37173204      -1.30579012      -1.40931834       0.00000000
Si       1.54913014      -1.43014798       1.10892763       0.00000000
Si       1.35011521       1.37492488      -1.42716735       0.00000000
Si      -1.41672502       1.51443244       1.22184580       0.00000000
H       -0.94789882      -2.20692035       2.10177876       0.00000000
H        0.93410119       0.54094203       3.20505613       0.00000000
H        1.08756928      -2.54046788       2.01603977       0.00000000
H       -0.69040279      -2.90254734       1.83691221       0.00000000
Si       2.85381255      -2.58944050      -0.40777452       0.00000000
Si      -0.01555695      -2.62606205      -2.85439265       0.00000000
