10
Lattice="16.2900001489832 0.0 0.0 0.0 16.2900001489832 0.0 0.0 0.0 28.97566389574794" Properties=species:S:1:pos:R:3:initial_magmoms:R:1 pbc="T T T"
Si       1.34193763       1.33470487      -1.37388110       0.00000000
Si      -1.40090743       1.32830290       1.33650250       0.00000000
Si       1.23468427      -1.35177679       1.50004114       0.00000000
Si      -1.38603466      -1.37064061      -1.34933872       0.00000000
Si      -2.32916051      -0.51838038       2.50370019       0.00000000
Si      -0.65961469      -2.26227377       2.61670528       0.00000000
Si       2.59085936      -2.67204872       0.05496683       0.00000000
Si       2.65134413       2.67748958       0.04036310       0.00000000
Si      -2.71939887       2.68025888      -0.07104833       0.00000000
Si       2.69381216      -0.02267568      -2.72707358       0.00000000
