10
Lattice="16.2900001489832 0.0 0.0 0.0 16.2900001489832 0.0 0.0 0.0 28.97566389574794" Properties=species:S:1:pos:R:3:initial_magmoms:R:1 pbc="T T T"
Si      -1.92969713       1.31724199      -0.06928081       0.00000000
Si       1.47025396       0.93944431       1.56627951       0.00000000
Si      -1.20218572      -1.90585997       0.66623744       0.00000000
Si       1.25709931      -0.68572756      -1.86423626       0.00000000
H       -1.68702500      -0.59623030      -2.34042232       0.00000000
Si      -0.52584120      -0.59248360      -3.31875664       0.00000000
Si      -2.72986356       1.02698677       2.12255431       0.00000000
Si       0.30020841      -3.00889986       2.02087870       0.00000000
Si       2.68491782       1.11309571      -2.23289364       0.00000000
Si       1.68195881      -2.95348617      -1.55576135       0.00000000
