10
Lattice="16.2900001489832 0.0 0.0 0.0 16.2900001489832 0.0 0.0 0.0 28.97566389574794" Properties=species:S:1:pos:R:3:initial_magmoms:R:1 pbc="T T T"
Si       1.21017173      -1.42197040       1.39129131       0.00000000
Si       1.47360156       1.53023374      -1.03590896       0.00000000
Si      -0.83789245      -1.40054905      -1.71533033       0.00000000
Si      -1.60078573       1.14194530       1.34081987       0.00000000
Si       1.28774569       1.05134032      -3.33110027       0.00000000
Si       0.54766980       3.62094123      -0.71430807       0.00000000
Si       2.55886906      -0.09834273       2.75421509       0.00000000
Si       0.68323519      -1.28304928      -3.51590706       0.00000000
Si      -0.41803398       2.58137858       2.76855514       0.00000000
Si      -0.34533171      -2.74931220       2.62233815       0.00000000
