10
Lattice="16.2900001489832 0.0 0.0 0.0 16.2900001489832 0.0 0.0 0.0 28.97566389574794" Properties=species:S:1:pos:R:3:initial_magmoms:R:1 pbc="T T T"
Si       1.43679430      -1.31256676      -1.23869514       0.00000000
Si      -1.31351158      -1.43430193       1.27640118       0.00000000
Si      -1.19128771       1.41665986      -1.45159094       0.00000000
Si       1.43205391       1.37451763       1.26475296       0.00000000
Si      -2.57965184      -0.03337821       2.66665353       0.00000000
Si      -2.57688254       2.74373613      -0.07667250       0.00000000
Si       0.10479357       2.72863514       2.64608081       0.00000000
Si       0.07726347      -2.71192664       2.68314068       0.00000000
Si       0.29491416      -2.78412393      -2.60183265       0.00000000
Si       2.75675673       0.02318067       2.68270605       0.00000000
