10
Lattice="16.2900001489832 0.0 0.0 0.0 16.2900001489832 0.0 0.0 0.0 28.97566389574794" Properties=species:S:1:pos:R:3:initial_magmoms:R:1 pbc="T T T"
Si      -1.33809319      -1.29066323       1.41378349       0.00000000
Si      -1.34899120       1.41910336      -1.30679665       0.00000000
Si       1.40592475      -1.24108135      -1.46004604       0.00000000
Si       1.37531584       1.41434668       1.33922911       0.00000000
Si       2.11993175       0.75070837      -2.71055456       0.00000000
Si       0.26911080       2.49587237      -2.59572429       0.00000000
Si      -2.68674230      -2.59043582       0.00243106       0.00000000
Si       0.04377123      -2.63091647       2.73756567       0.00000000
Si       2.78198994      -2.62006733      -0.07986272       0.00000000
Si      -2.66346389       0.08866647       2.77775492       0.00000000
