10
Lattice="16.2900001489832 0.0 0.0 0.0 16.2900001489832 0.0 0.0 0.0 28.97566389574794" Properties=species:S:1:pos:R:3:initial_magmoms:R:1 pbc="T T T"
Si       1.36428751      -1.32217786       1.38074834       0.00000000
Si       1.42167718       1.40162419      -1.25361761       0.00000000
Si      -1.31952259       1.34716672       1.42203866       0.00000000
Si      -1.37531584      -1.41434668      -1.33922911       0.00000000
Si       0.03583800       2.67589316      -2.62668450       0.00000000
Si      -2.72430704       0.00475668      -2.64602575       0.00000000
Si      -0.01345554      -2.64274627       2.75034104       0.00000000
Si       2.65544921       0.09573633      -2.74215831       0.00000000
Si       2.70866864      -2.69180361       0.01089485       0.00000000
Si      -2.69267186       2.71277372       0.12158189       0.00000000
