10
Lattice="16.2900001489832 0.0 0.0 0.0 16.2900001489832 0.0 0.0 0.0 28.97566389574794" Properties=species:S:1:pos:R:3:initial_magmoms:R:1 pbc="T T T"
Si       1.39429369      -1.35873262       1.31123572       0.00000000
Si       1.36386397       1.32463765      -1.38376181       0.00000000
Si      -1.33384150      -1.37365426      -1.36866548       0.00000000
Si      -1.32986674       1.39634623       1.37492423       0.00000000
Si       0.02393001      -2.70881525       2.65054885       0.00000000
Si      -2.68275125       2.68670972      -0.04169598       0.00000000
Si       2.72158661       0.02964780       2.68303057       0.00000000
Si      -2.67279806      -0.03707604      -2.73921439       0.00000000
Si       2.71928972       2.70430292      -0.04847629       0.00000000
Si      -2.72759762      -2.69744972      -0.01909496       0.00000000
