10
Lattice="16.2900001489832 0.0 0.0 0.0 16.2900001489832 0.0 0.0 0.0 28.97566389574794" Properties=species:S:1:pos:R:3:initial_magmoms:R:1 pbc="T T T"
Si      -1.39276243       1.35755372      -1.30248507       0.00000000
Si      -1.39791007      -1.33376119       1.33244590       0.00000000
Si       1.35876520       1.34618818       1.36715875       0.00000000
Si       1.34640109      -1.34213425      -1.38715196       0.00000000
Si       0.00622278      -2.69692469       2.61754557       0.00000000
Si       0.00099369       2.68134917      -2.65205559       0.00000000
Si       2.75304261      -0.11842944       2.59022152       0.00000000
Si      -2.71329500      -0.01438177      -2.68117613       0.00000000
Si      -2.72538218       0.05449038       2.69224484       0.00000000
Si       2.72912888       2.69627081       0.02784561       0.00000000
