10
Lattice="16.2900001489832 0.0 0.0 0.0 16.2900001489832 0.0 0.0 0.0 28.97566389574794" Properties=species:S:1:pos:R:3:initial_magmoms:R:1 pbc="T T T"
Si      -1.25237521      -1.92728621       0.09234544       0.00000000
Si       1.95263345      -0.85283038       1.01238072       0.00000000
Si      -1.36544410       1.45569070       1.32450657       0.00000000
Si      -0.22581198       0.50458275      -2.34111774       0.00000000
H       -0.91118116      -2.48414357       1.46961670       0.00000000
Si      -2.34993026       2.49702896      -0.52503903       0.00000000
Si      -0.59220667       2.79340923      -2.06132873       0.00000000
Si      -3.43497459      -1.14341140      -0.31250254       0.00000000
Si       3.47376108      -0.73533061      -0.78819601       0.00000000
Si      -0.45023931      -3.61963803      -1.31175728       0.00000000
