10
Lattice="16.2900001489832 0.0 0.0 0.0 16.2900001489832 0.0 0.0 0.0 28.97566389574794" Properties=species:S:1:pos:R:3:initial_magmoms:R:1 pbc="T T T"
Si      -1.21992553      -1.96069700       0.13302727       0.00000000
Si       0.22191867       1.15473295       2.01461996       0.00000000
Si      -0.82380160       1.55035189      -1.53840492       0.00000000
Si       2.19024428      -0.31579794      -0.82815345       0.00000000
Si       2.56689677       1.96058297      -0.87045792       0.00000000
Si       1.64715033       2.83879317       1.13839588       0.00000000
Si       1.27650559      -0.53147754       3.32982534       0.00000000
Si      -1.99410779       0.23084559      -3.13647074       0.00000000
Si      -3.02757798      -1.62595378       1.59209683       0.00000000
Si       1.98311041      -1.00717813      -3.07423101       0.00000000
