10
Lattice="16.2900001489832 0.0 0.0 0.0 16.2900001489832 0.0 0.0 0.0 28.97566389574794" Properties=species:S:1:pos:R:3:initial_magmoms:R:1 pbc="T T T"
Si       1.37448505      -1.37210671       1.29802282       0.00000000
Si      -1.37606518       1.33442794       1.34586164       0.00000000
Si       1.31173597       1.36418977      -1.38204355       0.00000000
Si      -1.27697311      -1.46896705      -1.30575352       0.00000000
Si      -2.69423570      -0.15977232      -2.54775769       0.00000000
Si      -0.22706631       2.58708008      -2.67412345       0.00000000
Si       2.55774179      -0.05651001      -2.73742949       0.00000000
Si       2.72720666       0.00817758       2.61644450       0.00000000
Si       0.01200573       2.73921240       2.60772282       0.00000000
Si      -0.00954594      -2.73844677       2.62574569       0.00000000
