10
Lattice="16.2900001489832 0.0 0.0 0.0 16.2900001489832 0.0 0.0 0.0 28.97566389574794" Properties=species:S:1:pos:R:3:initial_magmoms:R:1 pbc="T T T"
Si      -1.69963834       0.83699650       1.34339871       0.00000000
Si       1.29216679       1.38047977      -1.35278682       0.00000000
Si       1.19731012      -1.34776945       1.48430736       0.00000000
Si      -1.33452829      -1.35353611      -1.42183583       0.00000000
Si      -2.52401009      -1.37572309       1.82966830       0.00000000
Si       2.50539714      -2.74305684       0.06021143       0.00000000
Si      -0.52804687      -2.14703831       3.00306678       0.00000000
Si       2.62380915      -0.04808808      -2.66442820       0.00000000
Si      -2.46901505      -2.82923094      -0.02451341       0.00000000
Si       2.72635470       0.03927519       2.58329634       0.00000000
