10
Lattice="16.2900001489832 0.0 0.0 0.0 16.2900001489832 0.0 0.0 0.0 28.97566389574794" Properties=species:S:1:pos:R:3:initial_magmoms:R:1 pbc="T T T"
Si      -2.15114339       0.82197712       0.28184628       0.00000000
Si       1.00193275       1.64276507       1.31934890       0.00000000
Si       0.25383078      -2.25215279       0.59869517       0.00000000
Si       0.88731631       0.74238418      -2.07561373       0.00000000
H        1.44563977      -0.64661527       2.82327279       0.00000000
Si      -1.71975161       3.11924181      -0.09037510       0.00000000
Si       2.51921594      -2.66727087       0.12349428       0.00000000
Si      -1.41050224      -3.38880417      -0.56812584       0.00000000
Si       3.18453213       0.85889026       1.72419688       0.00000000
Si      -0.93647953       0.99562852      -3.51732686       0.00000000
