10
Lattice="16.2900001489832 0.0 0.0 0.0 16.2900001489832 0.0 0.0 0.0 28.97566389574794" Properties=species:S:1:pos:R:3:initial_magmoms:R:1 pbc="T T T"
Si       0.64119070      -0.52773084       2.16245177       0.00000000
Si      -1.43332453      -1.67189159      -0.88711893       0.00000000
Si       2.21363183      -0.09958077      -0.89059601       0.00000000
Si      -1.50661324       1.86776255       0.15342614       0.00000000
H        0.31475538      -0.06235812      -2.48802436       0.00000000
H        3.08328978      -0.19795608       0.36993230       0.00000000
H       -1.70916311      -1.46626291      -2.37443975       0.00000000
H       -1.19371492       2.91773451      -0.88410546       0.00000000
Si      -3.25071840       0.81125504      -0.93252379       0.00000000
Si      -0.12013875       0.89707891      -3.58388396       0.00000000
