10
Lattice="16.2900001489832 0.0 0.0 0.0 16.2900001489832 0.0 0.0 0.0 28.97566389574794" Properties=species:S:1:pos:R:3:initial_magmoms:R:1 pbc="T T T"
Si      -1.36428751       1.32217786      -1.38074834       0.00000000
Si      -1.37774305      -1.32056841       1.36959271       0.00000000
Si       1.34438113      -1.36962575      -1.36985349       0.00000000
Si       1.32848209       1.36555813       1.39123753       0.00000000
Si      -2.68381010       2.66934458       0.04129032       0.00000000
Si       0.05738967       2.72380205      -2.63436595       0.00000000
Si      -0.00324171      -2.66995243       2.69276640       0.00000000
Si       2.65136042       0.03859101      -2.72862378       0.00000000
Si      -2.69583212      -2.72308529       0.01758823       0.00000000
Si       2.73000855      -2.70778898      -0.01570481       0.00000000
