10
Lattice="16.2900001489832 0.0 0.0 0.0 16.2900001489832 0.0 0.0 0.0 28.97566389574794" Properties=species:S:1:pos:R:3:initial_magmoms:R:1 pbc="T T T"
Si      -1.37036368      -1.35008263       1.33931314       0.00000000
Si      -1.39429369       1.35873262      -1.31123572       0.00000000
Si       1.32584311      -1.35844266      -1.39152728       0.00000000
Si       1.32729292       1.38838042       1.37179486       0.00000000
Si       2.65067624      -0.05644485       2.66526849       0.00000000
Si      -2.70500339       0.14923269       2.60899775       0.00000000
Si      -0.03042972       2.68337027      -2.69499752       0.00000000
Si       0.02391372      -2.81470026       2.56237591       0.00000000
Si       2.68539023       2.69933447      -0.02234024       0.00000000
Si      -2.72813519      -0.01492164      -2.67990120       0.00000000
