10
Lattice="16.2900001489832 0.0 0.0 0.0 16.2900001489832 0.0 0.0 0.0 28.97566389574794" Properties=species:S:1:pos:R:3:initial_magmoms:R:1 pbc="T T T"
Si       1.29668401       0.34075422       0.72781073       0.00000000
H       -1.16647804      -2.31653576      -0.42608714       0.00000000
Si      -2.34883883       0.29877489      -1.20396781       0.00000000
Si      -0.61833583       1.42724836      -2.37496132       0.00000000
Si       1.09462285       2.62311356       0.85156579       0.00000000
H       -1.95445793       2.18885474       0.54439477       0.00000000
Si      -1.74307889      -2.38596374       0.98323120       0.00000000
Si       3.05303925      -0.12893535      -0.73589494       0.00000000
Si       1.25965684      -0.62755597       2.83978892       0.00000000
Si      -3.23696964      -0.60426127       0.79164411       0.00000000
