10
Lattice="16.2900001489832 0.0 0.0 0.0 16.2900001489832 0.0 0.0 0.0 28.97566389574794" Properties=species:S:1:pos:R:3:initial_magmoms:R:1 pbc="T T T"
Si      -1.43943328      -0.35865693      -0.23195019       0.00000000
H        0.57358720       1.55496196      -1.94757027       0.00000000
Si       1.85825733      -0.74456704       1.59256044       0.00000000
Si       2.30684321      -0.91874135      -0.79100665       0.00000000
H       -0.47860020       2.73364122      -0.22844413       0.00000000
Si       2.03621255       1.27843921      -1.68415251       0.00000000
Si      -2.56642436       0.99005734       1.28170952       0.00000000
Si      -1.74143360      -2.63495639       0.26272234       0.00000000
Si      -1.96126715      -0.23680773      -2.49544213       0.00000000
Si      -0.15060105      -1.22671195       2.97174409       0.00000000
