10
Lattice="16.2900001489832 0.0 0.0 0.0 16.2900001489832 0.0 0.0 0.0 28.97566389574794" Properties=species:S:1:pos:R:3:initial_magmoms:R:1 pbc="T T T"
Si       1.27570249       0.56565397       0.60202737       0.00000000
Si      -1.44590041      -2.11331801       0.20732088       0.00000000
Si      -1.94717630       1.63804097      -0.39815460       0.00000000
Si      -0.27186381       1.70494400      -2.09572284       0.00000000
Si       0.09730017      -2.31226778      -1.60519383       0.00000000
Si       2.51550182      -1.36001953       0.63955085       0.00000000
Si      -2.97054669      -0.34407738       0.23186326       0.00000000
Si       0.09119142      -0.39775293      -2.98249406       0.00000000
Si       0.51709347       1.55660725       2.56391162       0.00000000
Si       1.99531325       2.05180697      -1.04776001       0.00000000
