10
Lattice="16.2900001489832 0.0 0.0 0.0 16.2900001489832 0.0 0.0 0.0 28.97566389574794" Properties=species:S:1:pos:R:3:initial_magmoms:R:1 pbc="T T T"
Si      -0.41474340      -1.66076552      -1.57614283       0.00000000
Si       1.24435402      -1.48867795       1.33340790       0.00000000
Si      -1.62802261       1.21870378       1.26847633       0.00000000
H        2.19986841      -0.12066003      -0.97365764       0.00000000
Si       0.79250851       1.82759629      -1.42906236       0.00000000
H       -0.49365216       2.62494619      -1.14259214       0.00000000
Si      -2.70083315      -1.38104992      -1.44766473       0.00000000
H       -1.53870454       1.00196533      -2.95918024       0.00000000
Si       2.45446482       2.68517032       0.03359728       0.00000000
Si       2.49301511      -0.12051342       2.74969199       0.00000000
