10
Lattice="16.2900001489832 0.0 0.0 0.0 16.2900001489832 0.0 0.0 0.0 28.97566389574794" Properties=species:S:1:pos:R:3:initial_magmoms:R:1 pbc="T T T"
Si      -1.33198444      -1.35734797      -1.37837233       0.00000000
Si       1.36039420      -1.36391284       1.34786096       0.00000000
Si       1.36816453       1.33503067      -1.36944783       0.00000000
Si      -1.36508572       1.37286723       1.33902338       0.00000000
Si      -2.68912064      -2.70285311       0.01471964       0.00000000
Si       2.70124366       2.69348799       0.01245954       0.00000000
Si      -0.01746288       2.67319391      -2.72359650       0.00000000
Si       0.01312974      -2.73279413       2.68734795       0.00000000
Si      -2.73349460       0.03844440       2.69146249       0.00000000
Si       0.06234183      -2.67814118      -2.75025411       0.00000000
