10
Lattice="16.2900001489832 0.0 0.0 0.0 16.2900001489832 0.0 0.0 0.0 28.97566389574794" Properties=species:S:1:pos:R:3:initial_magmoms:R:1 pbc="T T T"
Si       1.42129274      -1.28943496       1.32812853       0.00000000
Si      -1.35142819       1.27242820       1.43493283       0.00000000
Si      -1.33649026      -1.37557648      -1.35600312       0.00000000
Si       1.38809372       1.36474363      -1.31920403       0.00000000
Si      -2.62765196       2.59493186      -0.07580034       0.00000000
Si       0.12912594      -2.66991473       2.68091535       0.00000000
Si       2.73537447       0.11155392       2.66277659       0.00000000
Si       2.72129991      -0.01316232      -2.68705819       0.00000000
Si       0.06119827       2.66681963      -2.75636798       0.00000000
Si      -2.65479110      -0.04543281      -2.77018937       0.00000000
