10
Lattice="16.2900001489832 0.0 0.0 0.0 16.2900001489832 0.0 0.0 0.0 28.97566389574794" Properties=species:S:1:pos:R:3:initial_magmoms:R:1 pbc="T T T"
Si       0.20713387       0.69138019       2.24607756       0.00000000
Si       0.50952677      -2.24880194       0.52929845       0.00000000
Si       1.72535699       0.79926886      -1.51875942       0.00000000
Si      -1.99596322       0.77131522      -1.17339849       0.00000000
H       -0.86909889      -1.68467924      -2.64652124       0.00000000
Si      -1.17159147       2.98403481      -1.65966808       0.00000000
H       -2.76077873      -2.30995460       0.37187367       0.00000000
Si      -1.94096818      -0.68219263      -3.02758019       0.00000000
Si       0.52804687       2.14703831      -3.00306678       0.00000000
Si       0.58378636       2.96776110       2.20377309       0.00000000
