10
Lattice="16.2900001489832 0.0 0.0 0.0 16.2900001489832 0.0 0.0 0.0 28.97566389574794" Properties=species:S:1:pos:R:3:initial_magmoms:R:1 pbc="T T T"
Si       1.37280718      -1.43744590       1.22906074       0.00000000
Si       1.39010716       1.31497768      -1.35388790       0.00000000
Si      -1.33957558      -1.40383963      -1.32430374       0.00000000
Si      -1.29266038       1.40113549       1.38677527       0.00000000
H        1.39953907       1.58048839       2.85737714       0.00000000
Si       0.25627428       2.58100391       2.73257896       0.00000000
Si       0.02052540       2.69216687      -2.66109600       0.00000000
Si      -2.71472852      -0.03942180      -2.64797002       0.00000000
Si      -2.70065396       0.08529444       2.70186476       0.00000000
Si       2.70824510       2.70791930      -0.00738879       0.00000000
