10
Lattice="16.2900001489832 0.0 0.0 0.0 16.2900001489832 0.0 0.0 0.0 28.97566389574794" Properties=species:S:1:pos:R:3:initial_magmoms:R:1 pbc="T T T"
Si       1.38279784       1.35032698       1.32088461       0.00000000
Si      -1.36039420       1.36370107      -1.33737177       0.00000000
Si      -1.35809731      -1.31095405       1.39413509       0.00000000
Si       1.36923153      -1.35808102      -1.34050114       0.00000000
Si      -2.68539023      -2.69933447       0.02234024       0.00000000
Si      -2.71581995      -0.01596420      -2.67265729       0.00000000
Si       0.01845657       2.72538218      -2.67491739       0.00000000
Si       2.73408104       0.00465894      -2.67810471       0.00000000
Si       2.71616204      -2.70057251       0.04259423       0.00000000
Si       0.02202408      -2.71640639      -2.71107902       0.00000000
