10
Lattice="16.2900001489832 0.0 0.0 0.0 16.2900001489832 0.0 0.0 0.0 28.97566389574794" Properties=species:S:1:pos:R:3:initial_magmoms:R:1 pbc="T T T"
Si      -1.35092971      -1.42410439       1.21842667       0.00000000
Si       1.18566766      -0.67551373      -1.89043026       0.00000000
Si       1.85644100       0.76892059       1.24679384       0.00000000
Si      -1.77981284       1.32150997      -1.02918661       0.00000000
Si      -2.66527208      -1.93396511      -0.71262748       0.00000000
H        1.62937468      -2.96489406      -0.38650638       0.00000000
Si       0.54006237       2.15493896       2.65039268       0.00000000
Si       0.79842178       1.44182791      -3.29160644       0.00000000
Si      -1.53601669       0.80096302      -3.30015426       0.00000000
Si      -2.67115277      -0.05725935       2.67763328       0.00000000
