10
Lattice="16.2900001489832 0.0 0.0 0.0 16.2900001489832 0.0 0.0 0.0 28.97566389574794" Properties=species:S:1:pos:R:3:initial_magmoms:R:1 pbc="T T T"
Si      -1.02337039      -1.98211835       0.63001786       0.00000000
Si       0.79200352       1.14238513       1.85519586       0.00000000
Si      -1.81969890       1.17739234      -0.85484004       0.00000000
Si       1.67531249       0.06690303      -1.69756824       0.00000000
H        1.94717630      -1.63804097       0.39815460       0.00000000
Si       1.68342491       2.94605630       0.70216726       0.00000000
Si       3.22287879      -1.07238700       1.00018197       0.00000000
Si      -2.39956263      -2.46207062      -1.19724546       0.00000000
Si      -0.83940742       2.75854048      -2.27896494       0.00000000
Si      -3.18932139      -0.37851444      -1.97727033       0.00000000
