10
Lattice="16.2900001489832 0.0 0.0 0.0 16.2900001489832 0.0 0.0 0.0 28.97566389574794" Properties=species:S:1:pos:R:3:initial_magmoms:R:1 pbc="T T T"
Si      -0.99121393       1.85387206       1.02652084       0.00000000
Si       1.32004387       1.32994819      -1.40077052       0.00000000
Si      -1.42677595      -1.24854706      -1.37344647       0.00000000
Si       1.24602211      -1.38104992       1.48819010       0.00000000
Si      -1.29971395       0.92116693       3.10914669       0.00000000
Si       2.54689265       2.70082501       0.02228229       0.00000000
Si      -0.06367761      -2.57370599      -2.75639696       0.00000000
Si       2.58361031      -2.77957902       0.16208986       0.00000000
Si       2.68716584      -0.02463048      -2.68786951       0.00000000
Si       0.67245121       3.57308121       1.17678864       0.00000000
