10
Lattice="16.2900001489832 0.0 0.0 0.0 16.2900001489832 0.0 0.0 0.0 28.97566389574794" Properties=species:S:1:pos:R:3:initial_magmoms:R:1 pbc="T T T"
Si       1.34472648       1.34144893       1.38060346       0.00000000
Si       1.36037791      -1.39004200      -1.31656724       0.00000000
Si      -1.33732756      -1.35910729       1.38700708       0.00000000
Si      -1.30106602       1.39663945      -1.38668835       0.00000000
Si      -2.75279826      -0.00309510      -2.61148097       0.00000000
Si      -2.69539229       2.71743266      -0.01480656       0.00000000
Si       2.73248462       2.68374494       0.05812518       0.00000000
Si      -0.00301365       2.71086779       2.71142672       0.00000000
Si       0.03336109      -2.71200809      -2.71076318       0.00000000
Si       0.18951135       2.69798240      -2.72508585       0.00000000
