10
Lattice="16.2900001489832 0.0 0.0 0.0 16.2900001489832 0.0 0.0 0.0 28.97566389574794" Properties=species:S:1:pos:R:3:initial_magmoms:R:1 pbc="T T T"
Si      -1.34774013       1.36941886       1.33082327       0.00000000
Si       1.38775814       1.34229601      -1.32247828       0.00000000
Si      -1.34472648      -1.34144893      -1.38060346       0.00000000
Si       1.33846460      -1.33757191       1.39135343       0.00000000
Si      -2.69500459       0.00053757       2.67031026       0.00000000
Si       2.65389841      -0.05862771      -2.71273063       0.00000000
Si      -2.68205404      -2.70055622       0.00640362       0.00000000
Si       2.69537275      -2.70135443       0.04091364       0.00000000
Si       0.02098478       2.71279001       2.68413165       0.00000000
Si      -2.64579250       0.05519052      -2.76729180       0.00000000
