10
Lattice="16.2900001489832 0.0 0.0 0.0 16.2900001489832 0.0 0.0 0.0 28.97566389574794" Properties=species:S:1:pos:R:3:initial_magmoms:R:1 pbc="T T T"
Si       1.33745788       1.32607117       1.36808597       0.00000000
Si       1.33758820      -1.39852909      -1.32610023       0.00000000
Si      -1.34366437      -1.17674074       1.54770611       0.00000000
Si      -1.24602211       1.38104992      -1.48819010       0.00000000
Si      -0.35373735       2.55598247       2.44676301       0.00000000
Si      -1.69727141      -3.27476244       0.53564412       0.00000000
Si      -3.31817529       0.07714944       1.76902223       0.00000000
Si       2.58220937       2.75889072      -0.00266576       0.00000000
Si      -2.54573606       2.30221685       1.62095659       0.00000000
Si       2.71736750       0.03391578      -2.66532644       0.00000000
