10
Lattice="16.2900001489832 0.0 0.0 0.0 16.2900001489832 0.0 0.0 0.0 28.97566389574794" Properties=species:S:1:pos:R:3:initial_magmoms:R:1 pbc="T T T"
Si       1.19035918      -1.29430567      -1.54069400       0.00000000
Si      -1.82379584       0.25324434      -1.44171313       0.00000000
Si       1.17893989       2.01165212       0.41484458       0.00000000
Si      -0.88731631      -0.74238418       2.07561373       0.00000000
H       -1.24719499       0.32267232      -2.85103147       0.00000000
Si       0.11461644       0.90038089       3.39496264       0.00000000
H       -0.08071695       2.63920808      -2.42494434       0.00000000
Si      -0.27262944       3.01772253       1.99378646       0.00000000
Si       1.21596706       2.97996231      -1.69713361       0.00000000
Si      -3.25161435      -1.54557892      -1.07305576       0.00000000
