10
Lattice="16.2900001489832 0.0 0.0 0.0 16.2900001489832 0.0 0.0 0.0 28.97566389574794" Properties=species:S:1:pos:R:3:initial_magmoms:R:1 pbc="T T T"
Si      -1.09740844       0.30428091      -2.01325810       0.00000000
Si       1.31841487      -1.91248837      -0.32322353       0.00000000
Si      -1.48392127      -0.38517705       1.80040288       0.00000000
Si       1.72478522       1.64375876       0.20161267       0.00000000
Si       2.05074812      -1.52818120       1.87550780       0.00000000
Si       0.12189807      -1.23082354       3.25761799       0.00000000
Si       0.54815850       3.40430052      -0.68802714       0.00000000
Si      -0.17490573       2.34613469      -2.61913924       0.00000000
H        1.46901592      -0.68577643      -3.29496762       0.00000000
Si       0.02958264      -1.04443336      -3.52691781       0.00000000
