10
Lattice="16.2900001489832 0.0 0.0 0.0 16.2900001489832 0.0 0.0 0.0 28.97566389574794" Properties=species:S:1:pos:R:3:initial_magmoms:R:1 pbc="T T T"
Si      -0.75549274      -1.51635466      -1.61313316       0.00000000
Si      -0.50952677       2.24880194      -0.52929845       0.00000000
Si       2.42712206      -0.07501545      -0.17431759       0.00000000
Si      -0.72067612      -1.14588748       2.07587451       0.00000000
H        1.25026729      -2.37443042       1.22144014       0.00000000
H       -2.21811810      -1.23983191      -1.87655092       0.00000000
H       -3.27030550      -0.06115266      -0.15742478       0.00000000
Si       2.41145108      -2.37068372       0.24310582       0.00000000
Si      -0.30239290       2.94018213       1.71677911       0.00000000
H       -1.37862566       0.56412271      -3.17581969       0.00000000
