10
Lattice="10.86 0.0 0.0 0.0 10.86 0.0 0.0 0.0 10.86" Properties=species:S:1:pos:R:3:initial_magmoms:R:1 pbc="T T T"
Si       2.15839242       0.78138786      -0.84885018       0.00000000
Si       0.61709778      -1.42154142      -2.08137330       0.00000000
Si      -2.09790222      -1.42154142       0.63362670       0.00000000
Si       1.87409934       0.02300148       1.98261246       0.00000000
Si      -0.48472524       2.39129598       1.96876596       0.00000000
Si      -2.09790222       1.29345858      -2.08137330       0.00000000
Si       1.97459778      -2.77904142      -0.72387330       0.00000000
Si      -0.74040222      -2.77904142       1.99112670       0.00000000
Si       3.33209778      -1.42154142       0.63362670       0.00000000
Si       0.61709778      -1.42154142       3.34862670       0.00000000
