10
Lattice="10.86 0.0 0.0 0.0 10.86 0.0 0.0 0.0 10.86" Properties=species:S:1:pos:R:3:initial_magmoms:R:1 pbc="T T T"
Si       1.35750000       1.35750000       1.35750000       0.00000000
Si       1.35750000      -1.35750000      -1.35750000       0.00000000
Si      -1.35750000       1.35750000      -1.35750000       0.00000000
Si      -1.35750000      -1.35750000       1.35750000       0.00000000
Si      -1.97459778       2.77904142       0.72387330       0.00000000
Si       0.18379464       3.56042928      -0.12497688       0.00000000
Si       2.66795448      -2.56652208       0.05829648       0.00000000
Si       2.56373106       2.66874726      -0.14785890       0.00000000
Si      -2.79208428      -2.52092094      -0.07220814       0.00000000
Si       0.25325520      -2.60282706      -2.78882628       0.00000000
