10
Lattice="10.86 0.0 0.0 0.0 10.86 0.0 0.0 0.0 10.86" Properties=species:S:1:pos:R:3:initial_magmoms:R:1 pbc="T T T"
Si      -1.25700156      -1.44454290       1.36601424       0.00000000
Si       1.45799844       1.27045710       1.36601424       0.00000000
Si       1.45799844      -1.44454290      -1.34898576       0.00000000
Si      -1.87409934      -0.02300148      -1.98261246       0.00000000
Si       0.28429308       0.75838638      -2.83146264       0.00000000
Si      -2.35882458       2.36829450      -0.01384650       0.00000000
Si      -2.61450156      -0.08704290       2.72351424       0.00000000
Si       0.10049844       2.62795710       2.72351424       0.00000000
Si      -2.61450156      -2.80204290       0.00851424       0.00000000
Si       3.09140760       2.27962260       0.42305130       0.00000000
