10
Lattice="10.86 0.0 0.0 0.0 10.86 0.0 0.0 0.0 10.86" Properties=species:S:1:pos:R:3:initial_magmoms:R:1 pbc="T T T"
Si       0.66817236       0.63832908       2.00718864       0.00000000
Si      -2.04682764       0.63832908      -0.70781136       0.00000000
Si       0.66817236      -2.07667092      -0.70781136       0.00000000
Si       2.02567236       1.99582908       0.64968864       0.00000000
Si      -0.68932764       1.99582908      -2.06531136       0.00000000
Si       2.02567236      -0.71917092      -2.06531136       0.00000000
Si       0.66817236       3.35332908      -0.70781136       0.00000000
Si       3.38317236       0.63832908      -0.70781136       0.00000000
Si       0.66817236       0.63832908      -3.42281136       0.00000000
Si      -3.15107244       2.10800202       0.57586236       0.00000000
