10
Lattice="10.86 0.0 0.0 0.0 10.86 0.0 0.0 0.0 10.86" Properties=species:S:1:pos:R:3:initial_magmoms:R:1 pbc="T T T"
Si       1.40454552       1.20902208       1.29920352       0.00000000
Si      -1.31045448       1.20902208      -1.41579648       0.00000000
Si       1.40454552      -1.50597792      -1.41579648       0.00000000
Si       0.04704552       2.56652208       2.65670352       0.00000000
Si      -2.66795448       2.56652208      -0.05829648       0.00000000
Si      -2.41469928      -0.03630498      -2.84712276       0.00000000
Si       2.76204552       2.56652208      -0.05829648       0.00000000
Si      -2.60794212      -0.11071770       2.72379660       0.00000000
Si       0.04704552       2.56652208      -2.77329648       0.00000000
Si       2.76204552      -0.14847792       2.65670352       0.00000000
