10
Lattice="16.28999089631971 0.0 0.0 0.0 16.28999089631971 0.0 0.0 0.0 34.35334932831803" Properties=species:S:1:pos:R:3:initial_magmoms:R:1 pbc="T T T"
Si      -1.27928972       1.35250983      -1.36165073       0.00000000
Si       1.32434002       1.35808101       1.34903961       0.00000000
Si      -1.38797660      -1.35660514       1.34299341       0.00000000
Si       1.46514915      -1.13558893      -1.50868658       0.00000000
Si      -0.38402390      -1.97718083      -2.78794560       0.00000000
Si      -2.25359462      -0.34231806      -2.62607764       0.00000000
Si       2.68482381       0.00431685       2.70427999       0.00000000
Si       2.69054160      -2.69955341      -0.04603695       0.00000000
Si       2.69616165       2.71109583      -0.02243962       0.00000000
Si      -0.02947205      -2.71193381       2.70345551       0.00000000
