10
Lattice="16.28999089631971 0.0 0.0 0.0 16.28999089631971 0.0 0.0 0.0 34.35334932831803" Properties=species:S:1:pos:R:3:initial_magmoms:R:1 pbc="T T T"
Si       2.05881165      -0.07514577      -1.06636291       0.00000000
Si      -0.97060870       2.03712966      -0.63539990       0.00000000
Si      -1.56037512      -1.73828961      -0.25497070       0.00000000
Si       0.82650573       0.64150020       2.11187333       0.00000000
Si       0.90442080       3.40629831      -0.24803132       0.00000000
Si       0.91250064       2.96517978       2.04210164       0.00000000
Si       2.77272090       2.21337117      -1.10099111       0.00000000
Si      -2.46219182       2.53397957       1.16931996       0.00000000
Si      -2.92554458       0.48391074       2.38907066       0.00000000
Si      -0.78047833       0.00781920       3.73462340       0.00000000
