10
Lattice="16.28999089631971 0.0 0.0 0.0 16.28999089631971 0.0 0.0 0.0 34.35334932831803" Properties=species:S:1:pos:R:3:initial_magmoms:R:1 pbc="T T T"
Si       1.60698407       0.63368100      -1.62275007       0.00000000
Si       1.70886172      -0.37763478       1.77682493       0.00000000
Si      -2.14506624       0.47609154      -1.34555274       0.00000000
Si       0.15515736      -2.57039910      -0.39410184       0.00000000
Si       2.52611474      -2.06001711       0.32460498       0.00000000
Si      -1.47781155      -2.64082077       1.54634818       0.00000000
Si       0.24297512      -1.64195055       3.17894190       0.00000000
Si      -0.55538637       3.51010797      -0.61619637       0.00000000
Si       1.69297898       2.95736058      -1.69252176       0.00000000
Si       0.78047833      -0.00781920      -3.73462340       0.00000000
