10
Lattice="16.28999089631971 0.0 0.0 0.0 16.28999089631971 0.0 0.0 0.0 34.35334932831803" Properties=species:S:1:pos:R:3:initial_magmoms:R:1 pbc="T T T"
Si       2.23141723      -0.28236597       0.78009629       0.00000000
Si      -0.96141299       1.28942843       1.78208099       0.00000000
Si      -1.33220664      -2.07184106       0.18196979       0.00000000
Si       0.88319167       1.02487883      -2.07892845       0.00000000
Si      -0.95991073      -0.25410282      -2.59086235       0.00000000
Si       3.00778234      -2.08394453      -0.50550982       0.00000000
Si       0.08775260       0.47490074       3.74901746       0.00000000
Si       2.04678637      -0.71240798       3.10942645       0.00000000
Si       1.12972453       3.33180347      -1.53569863       0.00000000
Si      -0.62417253      -3.23273162       2.18439329       0.00000000
