10
Lattice="16.28999089631971 0.0 0.0 0.0 16.28999089631971 0.0 0.0 0.0 34.35334932831803" Properties=species:S:1:pos:R:3:initial_magmoms:R:1 pbc="T T T"
Si      -1.84310240      -1.27898166      -0.51193390       0.00000000
Si       0.24653286       2.30692464       0.54322982       0.00000000
Si       2.05081326      -0.37952605      -1.21834221       0.00000000
Si      -0.88319167      -1.02487883       2.07892845       0.00000000
Si       1.34822556      -1.30724481       2.85902474       0.00000000
Si      -1.02101973      -3.34377404      -1.35654582       0.00000000
Si       1.38838041       3.18440178      -1.43741365       0.00000000
Si      -3.35204936       0.11619657      -1.76050708       0.00000000
Si       3.76919649       0.39231207       0.34624760       0.00000000
Si      -1.81800912       3.44069235       0.32838385       0.00000000
