10
Lattice="16.28999089631971 0.0 0.0 0.0 16.28999089631971 0.0 0.0 0.0 34.35334932831803" Properties=species:S:1:pos:R:3:initial_magmoms:R:1 pbc="T T T"
Si      -0.94239279      -1.53554427       1.59032049       0.00000000
Si       1.46192976      -0.09725130      -2.01437847       0.00000000
Si      -1.44904437       2.04309180       0.07726073       0.00000000
Si       1.43868393       0.79408863       1.93481607       0.00000000
Si      -2.28924999       1.74807990      -2.09919694       0.00000000
Si       0.89850753      -3.07380571       1.65662249       0.00000000
Si       2.69780319       1.90482228      -1.50952137       0.00000000
Si      -2.32715682      -2.78356841       0.20800965       0.00000000
Si      -2.39013396       1.74697218       2.30768753       0.00000000
Si       2.97973422       2.25733788       0.81534285       0.00000000
