10
Lattice="16.28999089631971 0.0 0.0 0.0 16.28999089631971 0.0 0.0 0.0 34.35334932831803" Properties=species:S:1:pos:R:3:initial_magmoms:R:1 pbc="T T T"
Si      -1.35866745       1.35264015       1.35764512       0.00000000
Si       1.35721764       1.35557235      -1.35620228       0.00000000
Si      -1.35793440      -1.35900954      -1.35579004       0.00000000
Si       1.35783666      -1.35951453       1.36602735       0.00000000
Si      -2.71529213       2.71145421       0.00051530       0.00000000
Si      -0.00061902       2.71318095      -2.71367564       0.00000000
Si       2.71461447      -0.00262269      -2.71343517       0.00000000
Si      -2.70253869      -0.00736308       2.72573367       0.00000000
Si      -2.71524652      -0.00208512      -2.71370999       0.00000000
Si       2.71551042       2.71360449       0.00061836       0.00000000
