10
Lattice="16.28999089631971 0.0 0.0 0.0 16.28999089631971 0.0 0.0 0.0 34.35334932831803" Properties=species:S:1:pos:R:3:initial_magmoms:R:1 pbc="T T T"
Si       1.35676152      -1.35814617      -1.36558075       0.00000000
Si      -1.35783666       1.35951453      -1.36602735       0.00000000
Si      -1.36725228      -1.35189081       1.38880363       0.00000000
Si       1.35420399       1.36392912       1.39625831       0.00000000
Si       2.71479366      -2.71360449      -0.00796998       0.00000000
Si      -2.71650411       2.71215468      -0.00838222       0.00000000
Si       2.71529865       2.71578735      -0.00425982       0.00000000
Si      -2.71757925      -2.71450044      -0.00577137       0.00000000
Si       2.71472850      -0.00009774      -2.72257316       0.00000000
Si      -0.00061902       2.71508688      -2.72222963       0.00000000
