10
Lattice="16.28999089631971 0.0 0.0 0.0 16.28999089631971 0.0 0.0 0.0 34.35334932831803" Properties=species:S:1:pos:R:3:initial_magmoms:R:1 pbc="T T T"
Si       0.97502166      -1.16027154       1.82608766       0.00000000
Si       1.05663456      -1.21891554      -1.84810817       0.00000000
Si      -2.37573360      -0.48876516       0.37606633       0.00000000
Si       1.03477338       2.67051744       0.16053329       0.00000000
Si      -2.76130161       1.89353331       0.86443381       0.00000000
Si       3.28455270      -0.86141520       1.08869260       0.00000000
Si      -2.30933556       2.15415702      -1.74065083       0.00000000
Si       0.00508248      -3.28085487       2.15972757       0.00000000
Si       2.57759928       0.10005318      -3.17902637       0.00000000
Si       0.62239203       3.19834602       2.51799885       0.00000000
