10
Lattice="16.28999089631971 0.0 0.0 0.0 16.28999089631971 0.0 0.0 0.0 34.35334932831803" Properties=species:S:1:pos:R:3:initial_magmoms:R:1 pbc="T T T"
Si      -1.87134633      -1.00243773      -0.99188481       0.00000000
Si       1.36951659      -1.65692106       0.97103231       0.00000000
Si      -0.37971990       1.80555102       1.47420610       0.00000000
Si       0.90675027       0.64622430      -2.09857858       0.00000000
Si      -0.86286501       3.29185062      -0.24576400       0.00000000
Si      -0.85582773      -2.99033901      -1.63765943       0.00000000
Si      -2.38513293       0.90093474       2.44472312       0.00000000
Si       2.99908674      -0.47052036      -1.94780164       0.00000000
Si       0.83973321       3.01970988      -1.86810183       0.00000000
Si       0.13364316      -3.65899464       0.46617521       0.00000000
