10
Lattice="16.28999089631971 0.0 0.0 0.0 16.28999089631971 0.0 0.0 0.0 34.35334932831803" Properties=species:S:1:pos:R:3:initial_magmoms:R:1 pbc="T T T"
Si       1.33636644       1.34863281       1.38602101       0.00000000
Si       1.35526284      -1.35782037      -1.36135529       0.00000000
Si      -1.35762489       1.35733167      -1.36114917       0.00000000
Si      -1.36109466      -1.35185823       1.40051813       0.00000000
Si       2.71254564      -2.71520091      -0.00024047       0.00000000
Si       2.71308321       2.71595025       0.00212991       0.00000000
Si      -2.71669959       2.71366965      -0.00288568       0.00000000
Si      -2.71529865      -2.71578735       0.00425982       0.00000000
Si       2.71399545      -0.00102627      -2.71810722       0.00000000
Si      -0.00058644       2.71427238      -2.71862253       0.00000000
