10
Lattice="16.28999089631971 0.0 0.0 0.0 16.28999089631971 0.0 0.0 0.0 34.35334932831803" Properties=species:S:1:pos:R:3:initial_magmoms:R:1 pbc="T T T"
Si      -1.35604476      -1.35713619      -1.35771383       0.00000000
Si       1.35803214      -1.35762489       1.35771383       0.00000000
Si       1.35866745       1.35812988      -1.35740465       0.00000000
Si      -1.35586557       1.35967743       1.35877879       0.00000000
Si      -2.71318421       2.71456560      -0.00027483       0.00000000
Si      -2.71436035       0.00047241      -2.71446577       0.00000000
Si       0.00097740      -2.71438641      -2.71484365       0.00000000
Si      -2.71369571      -2.71611315      -0.00065271       0.00000000
Si       0.00158013       2.71526607      -2.71487801       0.00000000
Si       2.71647153       2.71404432       0.00017177       0.00000000
