10
Lattice="16.28999089631971 0.0 0.0 0.0 16.28999089631971 0.0 0.0 0.0 34.35334932831803" Properties=species:S:1:pos:R:3:initial_magmoms:R:1 pbc="T T T"
Si      -2.31430401      -0.36079092       0.32068870       0.00000000
Si       1.60063911      -1.43325936       0.98985796       0.00000000
Si       0.59821767       2.15489007       0.86841880       0.00000000
Si       0.41238135      -0.52782858      -2.35746556       0.00000000
Si       3.02961420       1.26162792      -0.19323770       0.00000000
Si      -3.05041653       1.92114486       0.43031029       0.00000000
Si       2.78837559      -0.66601665      -2.29470196       0.00000000
Si      -1.55559726       2.63208933       2.04746076       0.00000000
Si       3.38506200      -2.01082131      -0.46256811       0.00000000
Si      -3.38369364      -1.30481271      -1.65356504       0.00000000
