10
Lattice="16.28999089631971 0.0 0.0 0.0 16.28999089631971 0.0 0.0 0.0 34.35334932831803" Properties=species:S:1:pos:R:3:initial_magmoms:R:1 pbc="T T T"
Si       1.35601218      -1.35490446       1.36169882       0.00000000
Si      -1.35910728       1.35834970       1.36101175       0.00000000
Si       1.37226960       1.35953911      -1.36509637       0.00000000
Si      -1.36661697      -1.37241621      -1.36191868       0.00000000
Si      -2.57246793       0.07956036      -2.80659120       0.00000000
Si       2.71218726      -2.71309950       0.00072142       0.00000000
Si      -2.71521720      -2.71081890       0.00415676       0.00000000
Si       2.71379997       2.71405314       0.00343534       0.00000000
Si       2.71384884       0.00061902       2.71903477       0.00000000
Si      -0.00184077      -2.71428867       2.71869123       0.00000000
