10
Lattice="16.28999089631971 0.0 0.0 0.0 16.28999089631971 0.0 0.0 0.0 34.35334932831803" Properties=species:S:1:pos:R:3:initial_magmoms:R:1 pbc="T T T"
Si      -1.34736219      -1.34039007      -1.38354756       0.00000000
Si       1.36735002       1.37351264      -1.38413157       0.00000000
Si      -1.39548285       1.27909080       1.48585190       0.00000000
Si       1.31743746      -1.32522408       1.53676359       0.00000000
Si       1.94272911       0.67468293       2.88856864       0.00000000
Si       0.21370851       2.50778916       2.82834718       0.00000000
Si      -2.69167489      -2.69117316       0.00515301       0.00000000
Si       2.72546361      -2.69193879       0.01271075       0.00000000
Si      -2.69127090       2.73268727      -0.00010306       0.00000000
Si       0.00850338      -2.70006750      -2.74232635       0.00000000
