10
Lattice="16.28999089631971 0.0 0.0 0.0 16.28999089631971 0.0 0.0 0.0 34.35334932831803" Properties=species:S:1:pos:R:3:initial_magmoms:R:1 pbc="T T T"
Si      -0.40733145       2.32534863       0.40561022       0.00000000
Si       0.38053440      -1.79576073       1.60536726       0.00000000
Si      -2.26046556      -0.60121503      -0.73361618       0.00000000
Si       2.12905413       0.10285506      -1.78486362       0.00000000
Si      -1.77328053      -1.31856147       2.78440923       0.00000000
Si       3.61502793      -0.63700416      -0.17623278       0.00000000
Si      -1.98506682       2.80632717      -1.34098374       0.00000000
Si      -2.47959864       2.35900377       1.60584821       0.00000000
Si      -3.54222792       1.39305564      -0.26902123       0.00000000
Si      -2.06298189      -0.92955627      -3.21032229       0.00000000
