10
Lattice="16.28999089631971 0.0 0.0 0.0 16.28999089631971 0.0 0.0 0.0 34.35334932831803" Properties=species:S:1:pos:R:3:initial_magmoms:R:1 pbc="T T T"
Si       0.00807984      -0.44111854       2.29013296       0.00000000
Si      -1.00540251       2.05082629      -0.52498818       0.00000000
Si      -1.87502950      -1.36916865      -0.38736858       0.00000000
Si       1.86830010      -1.19292714      -0.85295979       0.00000000
Si      -0.90442080      -3.40629831       0.24803132       0.00000000
Si       1.83990663      -0.31884091      -3.07888630       0.00000000
Si      -0.07791507      -2.76479811       2.35990465       0.00000000
Si      -1.19667969       2.09981032      -2.84521469       0.00000000
Si      -3.36661262      -0.87231875       1.41735128       0.00000000
Si       1.15439085      -3.48144408      -0.81833159       0.00000000
