10
Lattice="16.28999089631971 0.0 0.0 0.0 16.28999089631971 0.0 0.0 0.0 34.35334932831803" Properties=species:S:1:pos:R:3:initial_magmoms:R:1 pbc="T T T"
Si       2.03783013       1.23652503      -0.09625814       0.00000000
Si       0.10252926      -2.17639287      -0.97412412       0.00000000
Si      -1.54373814       1.43611011      -1.14826134       0.00000000
Si      -0.04191417       0.21579363       2.42764949       0.00000000
Si      -0.38309193       2.55819789       1.95669916       0.00000000
Si       1.15698096       3.49361856       0.18959624       0.00000000
Si      -1.63861110       0.67732191      -3.33849471       0.00000000
Si       0.58567437      -3.66269247       0.74584598       0.00000000
Si      -3.60254979       1.51125588      -0.08189843       0.00000000
Si      -0.82982889       3.72462705      -1.18288954       0.00000000
