10
Lattice="16.28999089631971 0.0 0.0 0.0 16.28999089631971 0.0 0.0 0.0 34.35334932831803" Properties=species:S:1:pos:R:3:initial_magmoms:R:1 pbc="T T T"
Si       1.42728093       0.79430040      -1.74467017       0.00000000
Si      -2.24660277       0.27761418      -0.91022685       0.00000000
Si      -0.03754845       1.44194193       2.25935410       0.00000000
Si       0.27867303      -2.77607664      -1.38955940       0.00000000
Si      -0.16685847       1.29834558      -3.43413448       0.00000000
Si      -1.17507915      -0.37721124       3.46851331       0.00000000
Si      -2.75817393      -2.00590173       1.89407297       0.00000000
Si      -2.58778053       2.62001844      -1.38117718       0.00000000
Si       3.27709188      -0.79519635      -2.06250754       0.00000000
Si      -2.20468860       0.06182055      -3.33787635       0.00000000
