10
Lattice="16.28999089631971 0.0 0.0 0.0 16.28999089631971 0.0 0.0 0.0 34.35334932831803" Properties=species:S:1:pos:R:3:initial_magmoms:R:1 pbc="T T T"
Si       1.35550719       1.34199626      -1.37530276       0.00000000
Si      -1.36161594      -1.36890270      -1.37465004       0.00000000
Si       1.24291071      -1.52083181       1.37626465       0.00000000
Si      -1.33900542       1.42196387       1.45129241       0.00000000
Si      -2.27082600      -0.56443384       2.37725310       0.00000000
Si      -0.71757450      -2.39096216       2.73573050       0.00000000
Si       2.69848737       2.69307257       0.01023730       0.00000000
Si      -2.72720664       2.70281399       0.00405370       0.00000000
Si      -0.00335574       2.70004469      -2.73394413       0.00000000
Si       2.70886410      -0.01319653      -2.73456249       0.00000000
