10
Lattice="16.28999089631971 0.0 0.0 0.0 16.28999089631971 0.0 0.0 0.0 34.35334932831803" Properties=species:S:1:pos:R:3:initial_magmoms:R:1 pbc="T T T"
Si      -1.35974259       1.35353472      -1.35977503       0.00000000
Si       1.35658233      -1.36149419      -1.35946585       0.00000000
Si      -1.36293543      -1.38395810       1.35386625       0.00000000
Si       1.36161594       1.36890270       1.37465004       0.00000000
Si       2.60452665      -0.15192911       2.75091469       0.00000000
Si       2.71712313       2.71089897      -0.00065271       0.00000000
Si      -2.71518462       2.71360311      -0.00237038       0.00000000
Si      -0.00073305       2.71249539      -2.71638956       0.00000000
Si       2.71484253      -0.00277365      -2.71687050       0.00000000
Si      -2.71609686      -0.00235888      -2.71656132       0.00000000
