10
Lattice="16.28999089631971 0.0 0.0 0.0 16.28999089631971 0.0 0.0 0.0 34.35334932831803" Properties=species:S:1:pos:R:3:initial_magmoms:R:1 pbc="T T T"
Si      -1.61880246       1.07229414      -1.34610239       0.00000000
Si       0.08360028       0.65182643       2.27058589       0.00000000
Si       2.32917678      -0.16261541      -0.41935157       0.00000000
Si      -0.80365086      -2.21100816       0.47016020       0.00000000
Si       2.75234211      -1.68614436       1.34675511       0.00000000
Si       1.28539503      -3.30406716       0.54793623       0.00000000
Si      -2.07612792       0.11152134       2.94298437       0.00000000
Si       1.81454310      -0.64684236       3.22344528       0.00000000
Si      -3.72897648       0.21998505      -0.76934369       0.00000000
Si      -1.17237501       0.70278970      -3.60548909       0.00000000
