10
Lattice="16.28999089631971 0.0 0.0 0.0 16.28999089631971 0.0 0.0 0.0 34.35334932831803" Properties=species:S:1:pos:R:3:initial_magmoms:R:1 pbc="T T T"
Si      -0.33171327       1.65117069      -1.65500788       0.00000000
Si      -0.37471887       0.90606609       2.18779427       0.00000000
Si       2.26132893      -0.68434290      -0.64680522       0.00000000
Si      -2.10263175      -1.24684637       0.25613872       0.00000000
Si       1.79418060       1.38119652       2.99286547       0.00000000
Si       2.04125103      -1.33801336      -2.89921818       0.00000000
Si      -0.83145789       0.62894061      -3.75812110       0.00000000
Si      -1.59542631      -3.58387235       0.55030661       0.00000000
Si      -2.13799734      -0.56516526       3.36017168       0.00000000
Si       1.56325356       3.07967337      -2.12966838       0.00000000
