10
Lattice="16.28999089631971 0.0 0.0 0.0 16.28999089631971 0.0 0.0 0.0 34.35334932831803" Properties=species:S:1:pos:R:3:initial_magmoms:R:1 pbc="T T T"
Si      -0.90520272      -1.87128117       1.14358619       0.00000000
Si       1.89255591       0.83603538       1.21261929       0.00000000
Si       0.31402233      -0.42906231      -2.34816030       0.00000000
Si      -1.62075726       1.81428246      -0.03839504       0.00000000
Si      -2.15664939      -0.52474977       2.60307188       0.00000000
Si       0.57203964       2.20498182       2.59699133       0.00000000
Si      -3.37830165       0.95185728       1.22114579       0.00000000
Si      -2.13715026      -0.32195556      -3.02554002       0.00000000
Si      -2.26017234      -3.06900342      -0.38373163       0.00000000
Si       1.87475094       1.14828210      -3.19442118       0.00000000
