10
Lattice="16.28999089631971 0.0 0.0 0.0 16.28999089631971 0.0 0.0 0.0 34.35334932831803" Properties=species:S:1:pos:R:3:initial_magmoms:R:1 pbc="T T T"
Si       1.35583299       1.35806472       1.35695806       0.00000000
Si       1.35692442      -1.35713619      -1.35737030       0.00000000
Si      -1.35795069       1.35698958      -1.35688935       0.00000000
Si      -1.35796698      -1.35804843       1.35699241       0.00000000
Si      -0.00223173       2.71300176      -2.71467189       0.00000000
Si       0.00006516      -2.71350675       2.71460318       0.00000000
Si       0.00026064      -2.71391400      -2.71450012       0.00000000
Si       2.71451673      -2.71461447       0.00058401       0.00000000
Si      -2.71580364      -0.00087966      -2.71343517       0.00000000
Si       2.71456560       2.71485882       0.00020612       0.00000000
