10
Lattice="16.28999089631971 0.0 0.0 0.0 16.28999089631971 0.0 0.0 0.0 34.35334932831803" Properties=species:S:1:pos:R:3:initial_magmoms:R:1 pbc="T T T"
Si       0.53108300      -0.14691951      -2.28035053       0.00000000
Si       1.44114177       1.38549708       1.23296988       0.00000000
Si      -1.76272235       0.70903854      -1.43195974       0.00000000
Si      -1.36720115      -1.48683717       1.29972878       0.00000000
Si       2.66660100      -0.42898086      -1.48555100       0.00000000
Si      -2.56256135      -1.70958663      -1.81853820       0.00000000
Si      -0.42428708      -2.20268493      -2.80592272       0.00000000
Si      -0.10497610       2.60535744       2.63209670       0.00000000
Si       2.60825022      -0.12825117       2.63893989       0.00000000
Si      -2.80318094       2.50269786      -0.10138507       0.00000000
