10
Lattice="16.28999089631971 0.0 0.0 0.0 16.28999089631971 0.0 0.0 0.0 34.35334932831803" Properties=species:S:1:pos:R:3:initial_magmoms:R:1 pbc="T T T"
Si       0.99777879       1.68034608      -1.44909379       0.00000000
Si      -1.70173485      -1.12039362      -1.44397514       0.00000000
Si      -0.86856651       1.31188257       1.95834813       0.00000000
Si       1.84779099      -1.82824299       0.06613023       0.00000000
Si      -0.99478143      -2.08186200       2.82374383       0.00000000
Si       2.30966136       0.23187186      -2.95782503       0.00000000
Si      -0.27188010      -0.03292209       3.79048198       0.00000000
Si      -0.42031458      -2.50175304      -2.96246273       0.00000000
Si       1.71282834       3.57213636      -0.19196662       0.00000000
Si       2.73101850       1.67285268       2.34444564       0.00000000
