10
Lattice="16.28999089631971 0.0 0.0 0.0 16.28999089631971 0.0 0.0 0.0 34.35334932831803" Properties=species:S:1:pos:R:3:initial_magmoms:R:1 pbc="T T T"
Si       0.26155224       0.87415398      -2.12114874       0.00000000
Si       0.04232142       2.03343183       1.14991030       0.00000000
Si       1.76000418      -1.34368065       0.80197939       0.00000000
Si      -2.18080746      -0.87806358      -0.19770364       0.00000000
Si       0.57627504       1.31900130       3.30036247       0.00000000
Si       2.25974880      -0.32145057       2.90509261       0.00000000
Si      -0.47783457      -0.79260624      -3.59288140       0.00000000
Si      -3.20002389       0.38022489      -1.91228026       0.00000000
Si       1.07773011      -3.56087345       0.52948847       0.00000000
Si       1.97011260       3.21061239       0.54821105       0.00000000
