10
Lattice="16.28999089631971 0.0 0.0 0.0 16.28999089631971 0.0 0.0 0.0 34.35334932831803" Properties=species:S:1:pos:R:3:initial_magmoms:R:1 pbc="T T T"
Si       1.35509994      -1.35971001       1.35761077       0.00000000
Si      -1.34918667      -1.36521603      -1.35898491       0.00000000
Si       1.35358497       1.34781831      -1.37314193       0.00000000
Si      -1.35935163       1.35681684       1.35884749       0.00000000
Si       0.10461438      -2.64417651      -2.74227825       0.00000000
Si       2.71326240       2.71129198      -0.00267956       0.00000000
Si       2.71075374      -2.71707426      -0.00065271       0.00000000
Si      -2.71643895       2.71152819       0.00024047       0.00000000
Si       2.71283886      -0.00182448       2.71529025       0.00000000
Si      -0.00182448       2.71260495       2.71556508       0.00000000
