10
Lattice="16.28999089631971 0.0 0.0 0.0 16.28999089631971 0.0 0.0 0.0 34.35334932831803" Properties=species:S:1:pos:R:3:initial_magmoms:R:1 pbc="T T T"
Si       1.37095011      -1.26882810       1.41379914       0.00000000
Si      -1.79393625      -1.05220368      -1.18247008       0.00000000
Si       1.30155471       1.42443018      -1.44503464       0.00000000
Si      -1.33783254       1.45340209       1.40449281       0.00000000
Si      -3.32125407       0.87907356      -1.17943153       0.00000000
Si       2.82475116      -2.54778858       0.03050579       0.00000000
Si       0.00208512      -2.61923652       2.77031060       0.00000000
Si      -2.71010214       0.09386298       2.76958918       0.00000000
Si      -2.65624740       2.83070908      -0.00663020       0.00000000
Si       2.72013678       0.09638793       2.77278405       0.00000000
