10
Lattice="16.28999089631971 0.0 0.0 0.0 16.28999089631971 0.0 0.0 0.0 34.35334932831803" Properties=species:S:1:pos:R:3:initial_magmoms:R:1 pbc="T T T"
Si      -1.35032697      -1.36260963      -1.39457500       0.00000000
Si       1.36725228       1.35189081      -1.38880363       0.00000000
Si       1.34617302      -1.37818287       1.45043357       0.00000000
Si      -1.41413490       1.44954936       1.59282829       0.00000000
Si      -2.69312307       2.70404226      -0.02909730       0.00000000
Si      -2.69195508      -2.71826343      -0.01143967       0.00000000
Si       2.72016936      -2.71173766      -0.02274193       0.00000000
Si       2.72145627       2.71581993       0.00745468       0.00000000
Si      -2.70527053      -0.00588069      -2.75359425       0.00000000
Si       0.00941562       2.71140534      -2.75483098       0.00000000
