10
Lattice="16.28999089631971 0.0 0.0 0.0 16.28999089631971 0.0 0.0 0.0 34.35334932831803" Properties=species:S:1:pos:R:3:initial_magmoms:R:1 pbc="T T T"
Si       1.12866894      -1.21303485       1.62295619       0.00000000
Si       1.39331628       0.00485442      -1.91155884       0.00000000
Si       0.12083922       2.32738392       0.56126533       0.00000000
Si      -2.04235875      -0.94910427      -0.87274733       0.00000000
Si      -0.68149215      -0.65270772       3.08919231       0.00000000
Si      -1.87494642       0.04733874      -3.03247490       0.00000000
Si      -1.41240816       3.22872591      -0.96031406       0.00000000
Si       2.28056742       2.86768901      -0.11113315       0.00000000
Si       0.16799877      -1.03195521      -3.60981761       0.00000000
Si      -1.71121563      -3.26023173      -1.35829784       0.00000000
