10
Lattice="16.28999089631971 0.0 0.0 0.0 16.28999089631971 0.0 0.0 0.0 34.35334932831803" Properties=species:S:1:pos:R:3:initial_magmoms:R:1 pbc="T T T"
Si      -1.35752715      -1.35578811      -1.35671758       0.00000000
Si       1.35773892      -1.35709354       1.35730159       0.00000000
Si      -1.35783666       1.35817549       1.35778254       0.00000000
Si       1.35734796       1.35902257      -1.35788560       0.00000000
Si       2.71337643       0.00138628       2.71425965       0.00000000
Si       0.00182448      -2.71260495      -2.71556508       0.00000000
Si      -2.71456560      -2.71451088       0.00027483       0.00000000
Si       2.71466334      -2.71442943      -0.00027483       0.00000000
Si       0.00115659       2.71462750       2.71487801       0.00000000
Si      -2.71461447      -0.00107677      -2.71532460       0.00000000
