10
Lattice="16.28999089631971 0.0 0.0 0.0 16.28999089631971 0.0 0.0 0.0 34.35334932831803" Properties=species:S:1:pos:R:3:initial_magmoms:R:1 pbc="T T T"
Si      -1.35335691       1.35519279       1.35925973       0.00000000
Si      -1.35563751      -1.35847982      -1.35695806       0.00000000
Si       1.35887329       1.35651228      -1.35682064       0.00000000
Si       1.35872651      -1.35656182       1.36245460       0.00000000
Si      -2.71221984       2.71324122       0.00061836       0.00000000
Si      -2.71337643      -0.00138628      -2.71425965       0.00000000
Si       0.00161271       2.71416975      -2.71453447       0.00000000
Si       0.00128691      -2.71581571      -2.71453447       0.00000000
Si       2.71603563      -0.00054571      -2.71450012       0.00000000
Si       2.71700977       2.71372992       0.00072142       0.00000000
