10
Lattice="16.28999089631971 0.0 0.0 0.0 16.28999089631971 0.0 0.0 0.0 34.35334932831803" Properties=species:S:1:pos:R:3:initial_magmoms:R:1 pbc="T T T"
Si       1.05023750       1.81247753      -1.12905781       0.00000000
Si      -0.46247310       0.87677993       2.16484622       0.00000000
Si      -1.80716373      -1.07120175      -1.21342968       0.00000000
Si       1.67460941      -1.84139295       0.19612338       0.00000000
Si      -0.34642314      -2.30055918      -2.59694289       0.00000000
Si       2.38911488       0.43778072      -2.58138082       0.00000000
Si       1.04647385      -0.51839830       3.41341940       0.00000000
Si      -1.75519863      -3.29338581       0.79067713       0.00000000
Si       0.95913891      -3.68454129      -1.12768368       0.00000000
Si       3.68490293      -1.01581575      -1.09542586       0.00000000
