10
Lattice="16.28999089631971 0.0 0.0 0.0 16.28999089631971 0.0 0.0 0.0 34.35334932831803" Properties=species:S:1:pos:R:3:initial_magmoms:R:1 pbc="T T T"
Si      -0.32811318       1.96950335       1.22143402       0.00000000
Si       2.04597513       0.36888053      -1.09315854       0.00000000
Si      -0.22344993      -2.09528237       1.06986696       0.00000000
Si      -2.63482605       1.67504531       1.36310731       0.00000000
Si       0.31475538       3.57037052      -0.53124049       0.00000000
Si      -2.49489495      -2.46293138       0.94708802       0.00000000
Si       3.55492208      -1.02629769       0.15541464       0.00000000
Si      -3.48161283      -0.50628506       1.61611987       0.00000000
Si       2.60983719       2.74246385      -0.95681002       0.00000000
Si       0.68382162      -3.87087608      -0.09553672       0.00000000
