10
Lattice="16.28999089631971 0.0 0.0 0.0 16.28999089631971 0.0 0.0 0.0 34.35334932831803" Properties=species:S:1:pos:R:3:initial_magmoms:R:1 pbc="T T T"
Si       0.86582979       2.16948591       0.20519267       0.00000000
Si       0.46910313      -0.75645873      -2.18315657       0.00000000
Si      -2.24482716       0.25135470       0.74484974       0.00000000
Si       0.62788176      -1.71559927       1.60375266       0.00000000
Si      -2.92710123      -1.96583810       0.47235882       0.00000000
Si      -1.74508254       1.27358478       2.84796296       0.00000000
Si       0.14988429       2.70208746       2.37330246       0.00000000
Si      -0.68152473      -2.78027995      -2.21757865       0.00000000
Si      -1.19615841      -3.26450690       1.42521820       0.00000000
Si      -0.19903122       1.01641455      -3.62747524       0.00000000
