10
Lattice="16.28999089631971 0.0 0.0 0.0 16.28999089631971 0.0 0.0 0.0 34.35334932831803" Properties=species:S:1:pos:R:3:initial_magmoms:R:1 pbc="T T T"
Si      -1.35764118      -1.35653346      -1.35761077       0.00000000
Si      -1.35741312       1.35741312       1.35771383       0.00000000
Si       1.35726058      -1.35765747       1.35771383       0.00000000
Si       1.35925389       1.35759231      -1.35754206       0.00000000
Si       2.71241436      -0.00218286      -2.71192362       0.00000000
Si      -0.00161271      -2.71416975       2.71453447       0.00000000
Si      -2.71383255      -0.00092853       2.71515283       0.00000000
Si       2.71442292      -2.71471547       0.00003435       0.00000000
Si       2.71483668       2.71476108       0.00030918       0.00000000
Si      -0.00016290       2.71573848       2.71405353       0.00000000
