10
Lattice="16.28999089631971 0.0 0.0 0.0 16.28999089631971 0.0 0.0 0.0 34.35334932831803" Properties=species:S:1:pos:R:3:initial_magmoms:R:1 pbc="T T T"
Si      -1.35663120       1.35435060      -1.35620228       0.00000000
Si       1.35840681       1.35640314       1.35692370       0.00000000
Si      -1.35637056      -1.35953082       1.35647711       0.00000000
Si       1.35834165      -1.36065483      -1.36204236       0.00000000
Si      -2.71282257       2.71111212      -0.00082448       0.00000000
Si       0.00115659       2.71311579       2.71401917       0.00000000
Si      -2.71391400      -0.00241092       2.71405353       0.00000000
Si      -2.71342530      -2.71629234      -0.00092754       0.00000000
Si       2.71642782      -0.00250866       2.71398482       0.00000000
Si      -2.70948312       0.01290168      -2.72133301       0.00000000
