10
Lattice="16.28999089631971 0.0 0.0 0.0 16.28999089631971 0.0 0.0 0.0 34.35334932831803" Properties=species:S:1:pos:R:3:initial_magmoms:R:1 pbc="T T T"
Si       1.35772779       1.35625653      -1.35644276       0.00000000
Si      -1.35751086       1.35301482       1.35998115       0.00000000
Si      -1.35725022      -1.35832536      -1.35633970       0.00000000
Si       1.35742665      -1.35672894       1.36296990       0.00000000
Si       2.71495397       2.71256193       0.00048095       0.00000000
Si      -2.71453302       2.71404432       0.00085883       0.00000000
Si      -0.00029322       2.71516833      -2.71350387       0.00000000
Si       2.71499958      -0.00097740      -2.71374435       0.00000000
Si      -2.71507059      -0.00076563      -2.71395047       0.00000000
Si       0.00016290      -2.71573848      -2.71405353       0.00000000
