10
Lattice="16.28999089631971 0.0 0.0 0.0 16.28999089631971 0.0 0.0 0.0 34.35334932831803" Properties=species:S:1:pos:R:3:initial_magmoms:R:1 pbc="T T T"
Si       0.23926752      -2.29908915      -0.25782203       0.00000000
Si       2.12462881       0.84201381      -0.46916395       0.00000000
Si      -0.52572717       0.93046851       2.12506502       0.00000000
Si      -1.59306426      -0.17014905      -1.92262062       0.00000000
Si       1.93818324       0.06711480      -2.67897874       0.00000000
Si      -2.07392877      -0.71558712       2.67698624       0.00000000
Si       1.30527976      -2.21513049      -2.37646297       0.00000000
Si      -1.01058273       3.15209871       1.52274741       0.00000000
Si      -3.12681663      -1.72177155       0.85089859       0.00000000
Si      -3.65387958      -0.24117345      -0.89995520       0.00000000
