10
Lattice="16.28999089631971 0.0 0.0 0.0 16.28999089631971 0.0 0.0 0.0 34.35334932831803" Properties=species:S:1:pos:R:3:initial_magmoms:R:1 pbc="T T T"
Si      -0.64286856      -1.60086717       1.75267451       0.00000000
Si       2.29508181      -0.82790667      -0.42556953       0.00000000
Si      -1.31548266      -0.25231581      -2.28381194       0.00000000
Si       0.36691596       2.16798723       1.98081523       0.00000000
Si      -0.43225515       3.24877986      -0.00549654       0.00000000
Si       3.26525998       0.12300579       1.52697288       0.00000000
Si      -0.31475538      -3.57037052       0.53124049       0.00000000
Si       1.73121975      -3.20148999      -0.56191805       0.00000000
Si       2.29907286       1.58457717      -2.56327659       0.00000000
Si       1.79644491       3.27090168      -0.93035793       0.00000000
