10
Lattice="16.28999089631971 0.0 0.0 0.0 16.28999089631971 0.0 0.0 0.0 34.35334932831803" Properties=species:S:1:pos:R:3:initial_magmoms:R:1 pbc="T T T"
Si      -1.27405719      -0.04543281      -1.94704587       0.00000000
Si       0.91054584      -2.14899309      -0.06482481       0.00000000
Si       1.78655688       1.50833997      -0.06434386       0.00000000
Si      -1.57081212      -0.05856255       1.74398311       0.00000000
Si      -2.66789475      -1.93704390       0.80510554       0.00000000
Si       0.26000469      -1.06675065      -3.40878170       0.00000000
Si       2.73039948      -2.03401827       1.37815409       0.00000000
Si      -3.20184837      -1.22261337      -1.34534662       0.00000000
Si       2.46783726       1.50695532       2.31933332       0.00000000
Si      -0.98442099      -3.57749577       0.40983569       0.00000000
