10
Lattice="16.28999089631971 0.0 0.0 0.0 16.28999089631971 0.0 0.0 0.0 34.35334932831803" Properties=species:S:1:pos:R:3:initial_magmoms:R:1 pbc="T T T"
Si      -1.42063461      -1.26332208       1.36164871       0.00000000
Si      -1.39833360       1.04806602      -1.55462734       0.00000000
Si       1.35094599       1.49481927       1.32286032       0.00000000
Si       1.04045859      -1.79365932      -1.33057467       0.00000000
Si      -1.43843958      -0.95107536      -3.04539177       0.00000000
Si      -2.46270591       2.81474910      -0.16256014       0.00000000
Si       2.80318094      -2.50269786       0.10138507       0.00000000
Si      -0.03197727      -2.63318076       2.73114918       0.00000000
Si       2.69820484       0.10265958       2.73348177       0.00000000
Si      -2.74115088       0.10562436       2.74602075       0.00000000
