10
Lattice="16.28999089631971 0.0 0.0 0.0 16.28999089631971 0.0 0.0 0.0 34.35334932831803" Properties=species:S:1:pos:R:3:initial_magmoms:R:1 pbc="T T T"
Si      -1.27898817       1.25449290      -1.62192559       0.00000000
Si       0.67741965       1.98231381       1.34833536       0.00000000
Si      -1.92355904      -0.94449420       1.40601467       0.00000000
Si       1.41413490      -1.44954936      -1.59282829       0.00000000
Si       0.61102161      -0.66060837       3.46505252       0.00000000
Si      -2.52728061       2.67757101      -0.24974899       0.00000000
Si       2.60257185       2.65940766      -0.04950320       0.00000000
Si      -2.61669756      -2.79311598      -0.15194495       0.00000000
Si      -3.56155505       1.05725358       1.14060054       0.00000000
Si       2.76030792      -2.82773223      -0.14239471       0.00000000
