10
Lattice="16.28999089631971 0.0 0.0 0.0 16.28999089631971 0.0 0.0 0.0 34.35334932831803" Properties=species:S:1:pos:R:3:initial_magmoms:R:1 pbc="T T T"
Si       0.39077008       2.31287049       0.30189740       0.00000000
Si       0.70762035      -0.65435301       2.17656072       0.00000000
Si      -2.23573734      -0.91158840       0.26616990       0.00000000
Si       0.93696400      -0.89656902      -2.07253872       0.00000000
Si      -1.75088178      -3.13321860       0.86848751       0.00000000
Si      -0.48881403       0.83973321       3.59480519       0.00000000
Si      -0.80027883       2.82675483       2.30964567       0.00000000
Si       0.89947420      -3.22167330      -1.72574147       0.00000000
Si       2.71173833       2.54733246       0.98515155       0.00000000
Si      -0.31726404       3.47376105      -1.70052610       0.00000000
