10
Lattice="16.28999089631971 0.0 0.0 0.0 16.28999089631971 0.0 0.0 0.0 34.35334932831803" Properties=species:S:1:pos:R:3:initial_magmoms:R:1 pbc="T T T"
Si       2.13143803       1.07702964      -0.03479996       0.00000000
Si      -0.62481924       1.67664825       1.59516431       0.00000000
Si      -0.50044509      -2.19276432       0.84461192       0.00000000
Si      -0.68128038       0.00138465      -2.38367718       0.00000000
Si      -0.45792819       3.38522490      -0.00274827       0.00000000
Si       1.49289935       2.98216143      -1.32538731       0.00000000
Si       0.26256222      -3.54097359      -0.94117924       0.00000000
Si      -2.46783726      -1.50695532      -2.31933332       0.00000000
Si       3.55689611      -0.60575994      -0.88494277       0.00000000
Si       2.29627491      -2.50747083      -1.67544814       0.00000000
