10
Lattice="16.28999089631971 0.0 0.0 0.0 16.28999089631971 0.0 0.0 0.0 34.35334932831803" Properties=species:S:1:pos:R:3:initial_magmoms:R:1 pbc="T T T"
Si       0.16689105       1.70857665      -1.59791258       0.00000000
Si      -2.20496553       0.66125997       0.63649921       0.00000000
Si       0.62481924      -1.67664825      -1.59516431       0.00000000
Si       1.41980382       0.41080122       2.61539065       0.00000000
Si       3.05277273       0.48122289       0.67494063       0.00000000
Si      -2.34049833      -1.77072300       1.30573718       0.00000000
Si       2.75625727      -0.59961861      -1.62996428       0.00000000
Si      -1.19449683       3.18761091       0.91287206       0.00000000
Si       0.75254913       3.52771353      -0.27651026       0.00000000
Si      -1.87396902       1.55882268      -2.80241039       0.00000000
