10
Lattice="16.28999089631971 0.0 0.0 0.0 16.28999089631971 0.0 0.0 0.0 34.35334932831803" Properties=species:S:1:pos:R:3:initial_magmoms:R:1 pbc="T T T"
Si       2.06454198      -1.13376771       0.21484597       0.00000000
Si      -1.06601224      -0.08395866       2.11864094       0.00000000
Si      -0.97017817      -0.95091246      -1.95254241       0.00000000
Si       0.63290348       2.28224529      -0.30251576       0.00000000
Si      -1.30527976       2.21513049       2.37646297       0.00000000
Si      -2.89834402       2.04498144       0.45384235       0.00000000
Si      -3.26525998      -0.12300579      -1.52697288       0.00000000
Si       2.63739612      -0.41526468       2.48017579       0.00000000
Si       3.20638953      -0.25629057      -1.76579750       0.00000000
Si       0.58833078      -0.87985548       3.53887791       0.00000000
