10
Lattice="16.28999089631971 0.0 0.0 0.0 16.28999089631971 0.0 0.0 0.0 34.35334932831803" Properties=species:S:1:pos:R:3:initial_magmoms:R:1 pbc="T T T"
Si      -1.35744570       1.35713619       1.35754206       0.00000000
Si       1.35733167       1.35705474      -1.35774818       0.00000000
Si       1.35769005      -1.35744570       1.35757642       0.00000000
Si      -1.35628911      -1.35944937      -1.35726724       0.00000000
Si       2.71345788       0.00045612       2.71432835       0.00000000
Si      -0.00011403       2.71355562       2.71491236       0.00000000
Si      -0.00009774      -2.71621089      -2.71264504       0.00000000
Si       2.71298547      -0.00030951      -2.71601167       0.00000000
Si      -2.71415835       2.71485882       0.00048095       0.00000000
Si       2.71494027      -2.71415835       0.00048095       0.00000000
