10
Lattice="16.28999089631971 0.0 0.0 0.0 16.28999089631971 0.0 0.0 0.0 34.35334932831803" Properties=species:S:1:pos:R:3:initial_magmoms:R:1 pbc="T T T"
Si      -0.06942798      -0.06959088       2.37179092       0.00000000
Si       1.45901385      -1.93536603      -0.47730570       0.00000000
Si      -2.01245031       1.35205371      -0.64464096       0.00000000
Si      -0.05196510       2.22218406      -2.00410681       0.00000000
Si       2.71433754      -0.39115548      -1.91836081       0.00000000
Si      -2.74823703      -0.47255661      -2.03643333       0.00000000
Si      -0.00845451      -3.14893845      -1.88744277       0.00000000
Si       3.42980804       1.45199286      -0.59455375       0.00000000
Si       1.40877549       0.99282663      -3.38762002       0.00000000
Si       1.75519863       3.29338581      -0.79067713       0.00000000
