10
Lattice="16.28999089631971 0.0 0.0 0.0 16.28999089631971 0.0 0.0 0.0 34.35334932831803" Properties=species:S:1:pos:R:3:initial_magmoms:R:1 pbc="T T T"
Si       1.29146373       1.20366388      -1.54061116       0.00000000
Si      -0.61151031      -1.99008414      -1.09748706       0.00000000
Si       1.18018348      -0.26482653       2.03557450       0.00000000
Si      -1.98177624       1.19394853       0.58768308       0.00000000
Si      -2.86801740      -1.39426110      -1.46754155       0.00000000
Si       1.85853329       3.20415245      -0.42227161       0.00000000
Si      -1.76169834       1.84761899       2.84009604       0.00000000
Si      -3.80581641      -0.35495910       0.40914862       0.00000000
Si      -0.31139964       0.23202338       3.84029436       0.00000000
Si       3.25049750       0.01635516      -2.18020218       0.00000000
