10
Lattice="16.28999089631971 0.0 0.0 0.0 16.28999089631971 0.0 0.0 0.0 34.35334932831803" Properties=species:S:1:pos:R:3:initial_magmoms:R:1 pbc="T T T"
Si       1.35604476       1.35713619       1.35771383       0.00000000
Si       1.35702216      -1.35725022      -1.35712982       0.00000000
Si      -1.35831559       1.35760860      -1.35675194       0.00000000
Si      -1.35765095      -1.35897696       1.35706112       0.00000000
Si      -2.71299749      -0.00014661      -2.71360693       0.00000000
Si      -0.00122175       2.71401174      -2.71415659       0.00000000
Si       0.00177561      -2.71249677      -2.71611473       0.00000000
Si       2.71407690      -0.00048870       2.71542766       0.00000000
Si       2.71485882      -2.71485882       0.00034353       0.00000000
Si       2.71471221       2.71526607       0.00030918       0.00000000
