10
Lattice="16.28999089631971 0.0 0.0 0.0 16.28999089631971 0.0 0.0 0.0 34.35334932831803" Properties=species:S:1:pos:R:3:initial_magmoms:R:1 pbc="T T T"
Si       2.31937835       0.16052166       0.47500403       0.00000000
Si      -0.70762035       0.65435301      -2.17656072       0.00000000
Si      -1.19643438       1.49408622       1.41824447       0.00000000
Si      -1.02610614      -2.06571861       0.61430694       0.00000000
Si      -2.94335769      -0.25723539      -1.91039082       0.00000000
Si      -0.31685027       2.96722350      -1.87466332       0.00000000
Si      -2.45850213      -2.47886559      -1.30807321       0.00000000
Si      -1.50789918       3.48110784       0.13308495       0.00000000
Si      -3.31962411       0.55882845       1.90843268       0.00000000
Si       2.94036944      -1.39141035       2.13605810       0.00000000
