10
Lattice="16.28999089631971 0.0 0.0 0.0 16.28999089631971 0.0 0.0 0.0 34.35334932831803" Properties=species:S:1:pos:R:3:initial_magmoms:R:1 pbc="T T T"
Si       1.34954505       1.34377906       1.38951131       0.00000000
Si      -1.36572428      -1.37428956       1.39081674       0.00000000
Si       1.49550345      -1.29130830      -1.41807613       0.00000000
Si      -1.22539244       1.56396447      -1.46264963       0.00000000
Si      -2.69054160       2.69955341       0.04603695       0.00000000
Si       2.72119563       2.68116200       0.03760663       0.00000000
Si      -2.71705235      -2.70448209       0.02704641       0.00000000
Si       2.70135441      -2.74328487       0.02659638       0.00000000
Si      -0.00571779       2.70387026       2.75031694       0.00000000
Si       2.70886410      -0.01251896       2.74952682       0.00000000
