10
Lattice="16.28999089631971 0.0 0.0 0.0 16.28999089631971 0.0 0.0 0.0 34.35334932831803" Properties=species:S:1:pos:R:3:initial_magmoms:R:1 pbc="T T T"
Si      -0.34999065      -2.28586167      -0.24177901       0.00000000
Si       1.64462211       0.76914605       1.52425896       0.00000000
Si       0.18463086       0.43004201      -2.32933015       0.00000000
Si      -1.95903377       1.18730872       0.63959102       0.00000000
Si       0.90227052       2.99793734       1.25132145       0.00000000
Si       1.27252593      -2.82278007      -1.88510674       0.00000000
Si       0.86423337      -3.15224532       1.59458031       0.00000000
Si       2.02310397       1.85017652      -2.50350173       0.00000000
Si      -2.67095890      -2.52032364      -0.92503315       0.00000000
Si      -2.04678637       0.71240798      -3.10942645       0.00000000
