10
Lattice="16.28999089631971 0.0 0.0 0.0 16.28999089631971 0.0 0.0 0.0 34.45770212530097" Properties=species:S:1:pos:R:3:initial_magmoms:R:1 pbc="T T T"
Si       1.28739870       1.95580998      -0.14489472       0.00000000
Si       1.31673699      -1.92643911      -0.44560725       0.00000000
Si      -2.21245241       0.07379370      -0.91495588       0.00000000
Si      -0.42098247      -0.37644561       2.32996220       0.00000000
Si      -2.16119267      -2.23176258      -1.33985404       0.00000000
Si      -0.45348102      -3.40120539      -0.18617507       0.00000000
Si      -0.75904884       1.84147047       2.94010508       0.00000000
Si       0.01420488       3.26980766      -1.66778817       0.00000000
Si       1.80636552      -0.90354114       3.06735744       0.00000000
Si       3.01454595      -1.73413566       1.19375330       0.00000000
