10
Lattice="16.28999089631971 0.0 0.0 0.0 16.28999089631971 0.0 0.0 0.0 34.45770212530097" Properties=species:S:1:pos:R:3:initial_magmoms:R:1 pbc="T T T"
Si       1.37169945       1.33665966       1.35856458       0.00000000
Si       1.35176049      -1.35820318      -1.35942602       0.00000000
Si      -1.36251189       1.35790182      -1.35801326       0.00000000
Si      -1.35236322      -1.39185018       1.35160412       0.00000000
Si      -0.13308930       2.45024406       2.72974069       0.00000000
Si      -2.71117728      -0.12847923       2.70437980       0.00000000
Si       2.70831024       2.71360449      -0.00385926       0.00000000
Si       2.70845685      -2.71400480       0.00124048       0.00000000
Si       2.71033020       0.00032580      -2.71664675       0.00000000
Si      -2.71612944      -2.71424699      -0.00068915       0.00000000
