10
Lattice="16.28999089631971 0.0 0.0 0.0 16.28999089631971 0.0 0.0 0.0 34.45770212530097" Properties=species:S:1:pos:R:3:initial_magmoms:R:1 pbc="T T T"
Si       1.90509921       1.32392088      -0.71971843       0.00000000
Si      -2.34916461       0.85442679      -0.09048598       0.00000000
Si      -0.13176981      -1.79096984      -1.78718418       0.00000000
Si       1.25514450      -0.07644897       2.26635325       0.00000000
Si      -2.67789681       0.51430788      -2.42465202       0.00000000
Si      -2.53843812      -1.78455484       2.22279869       0.00000000
Si       3.64777083       0.82658718       0.78432665       0.00000000
Si       1.72605582      -1.17683358      -3.24023183       0.00000000
Si      -0.55578222      -0.86786115       3.72191429       0.00000000
Si       1.46354247       3.61020609      -0.41104616       0.00000000
