10
Lattice="16.28999089631971 0.0 0.0 0.0 16.28999089631971 0.0 0.0 0.0 34.45770212530097" Properties=species:S:1:pos:R:3:initial_magmoms:R:1 pbc="T T T"
Si      -1.35584928       1.35573525      -1.36176915       0.00000000
Si      -1.33731126      -1.37386602       1.36586962       0.00000000
Si       1.36062225      -1.36010097      -1.36028747       0.00000000
Si       1.36472733       1.35291708       1.37954933       0.00000000
Si       2.59004484      -0.26775873       2.72746648       0.00000000
Si      -2.71018359       2.71186146      -0.00809756       0.00000000
Si      -2.71143792      -0.00244350      -2.71912771       0.00000000
Si       0.00327429       2.71244790      -2.71950674       0.00000000
Si      -2.71319724      -2.71884987      -0.00082699       0.00000000
Si       2.71909422       2.71316466      -0.00093036       0.00000000
