10
Lattice="16.28999089631971 0.0 0.0 0.0 16.28999089631971 0.0 0.0 0.0 34.45770212530097" Properties=species:S:1:pos:R:3:initial_magmoms:R:1 pbc="T T T"
Si       1.35436689       1.36024758      -1.38047969       0.00000000
Si      -1.36472733      -1.35291708      -1.37954933       0.00000000
Si      -1.35905841       1.33942896       1.48113070       0.00000000
Si       1.22531751      -1.62067581       1.34791715       0.00000000
Si       2.69392617       2.72349252       0.01081972       0.00000000
Si      -2.72691342       2.70075168      -0.01485128       0.00000000
Si      -2.70203859      -2.72678310      -0.01367972       0.00000000
Si      -0.00410508      -2.71301805      -2.73983680       0.00000000
Si       2.71306692       0.00193851      -2.74090499       0.00000000
Si      -0.00560376       2.71590138      -2.74021584       0.00000000
