10
Lattice="16.28999089631971 0.0 0.0 0.0 16.28999089631971 0.0 0.0 0.0 34.45770212530097" Properties=species:S:1:pos:R:3:initial_magmoms:R:1 pbc="T T T"
Si       2.46560553       0.49076883      -0.09692957       0.00000000
Si      -0.85962330       2.00349081       1.25887839       0.00000000
Si      -1.43092989       0.90691317      -1.87467233       0.00000000
Si      -0.54420003      -1.70717571       1.80375834       0.00000000
Si       1.40375817      -2.31875118      -2.12996959       0.00000000
Si       0.55539126       3.75574095       0.65435213       0.00000000
Si      -1.64623482      -0.42163407       3.48543298       0.00000000
Si      -2.22570270      -3.19865553       0.93952423       0.00000000
Si      -0.62832159       1.66653216       3.59604226       0.00000000
Si       3.60597069      -0.50350761       1.80210437       0.00000000
