10
Lattice="16.28999089631971 0.0 0.0 0.0 16.28999089631971 0.0 0.0 0.0 34.45770212530097" Properties=species:S:1:pos:R:3:initial_magmoms:R:1 pbc="T T T"
Si      -1.01791323      -2.08816623      -0.11060929       0.00000000
Si       2.18911536      -0.47429964       0.69384068       0.00000000
Si      -1.10156238       1.59446520       1.36352649       0.00000000
Si      -0.23130171       0.33695865      -2.33716387       0.00000000
Si      -3.13414713      -1.32817257      -0.97904724       0.00000000
Si       2.07469440       0.35437266       2.90189146       0.00000000
Si       0.30817422       1.89429894       3.25611684       0.00000000
Si      -0.86433111       3.67564302       0.23093565       0.00000000
Si       1.18371285       2.08920879      -2.94169013       0.00000000
Si       0.08412156      -3.37370787      -1.79228392       0.00000000
