10
Lattice="16.28999089631971 0.0 0.0 0.0 16.28999089631971 0.0 0.0 0.0 34.45770212530097" Properties=species:S:1:pos:R:3:initial_magmoms:R:1 pbc="T T T"
Si       1.73416824      -1.44616104       0.59656653       0.00000000
Si       0.84110157       1.69331292      -1.37183080       0.00000000
Si      -0.72210312       1.22634378       1.87922075       0.00000000
Si      -1.93500765      -1.30963455      -0.44571063       0.00000000
Si      -1.19957931      -3.12333057       0.86292472       0.00000000
Si      -0.92541861       3.23323920      -1.01760543       0.00000000
Si       1.32533811       1.18661247       3.08468968       0.00000000
Si       1.65086118      -1.25722962       2.91870683       0.00000000
Si      -2.27053278       2.67227676       0.84790115       0.00000000
Si      -0.60035166      -2.06055468       2.99444490       0.00000000
