10
Lattice="16.28999089631971 0.0 0.0 0.0 16.28999089631971 0.0 0.0 0.0 34.45770212530097" Properties=species:S:1:pos:R:3:initial_magmoms:R:1 pbc="T T T"
Si       1.35873261      -1.35653346       1.36142457       0.00000000
Si      -1.35817875       1.36067112       1.36052867       0.00000000
Si      -1.35536058      -1.33939638      -1.38892183       0.00000000
Si       1.36979352       1.35348723      -1.39058614       0.00000000
Si       0.13703148      -2.58610266      -2.83427163       0.00000000
Si      -2.71470895      -2.71536381      -0.00096482       0.00000000
Si       2.71554300      -2.71466334       0.00689154       0.00000000
Si       0.00021177      -2.71384884       2.71947229       0.00000000
Si      -2.71504290       0.00146610       2.71919663       0.00000000
Si      -2.71696186       2.71774215       0.00640914       0.00000000
