10
Lattice="16.28999089631971 0.0 0.0 0.0 16.28999089631971 0.0 0.0 0.0 34.45770212530097" Properties=species:S:1:pos:R:3:initial_magmoms:R:1 pbc="T T T"
Si       1.35681039      -1.35812988      -1.35453303       0.00000000
Si       1.35666378       1.35746199       1.35811663       0.00000000
Si      -1.35852084      -1.35731538       1.35804772       0.00000000
Si      -1.35873261       1.35653346      -1.36142457       0.00000000
Si      -0.00562005      -2.70083313      -2.72209452       0.00000000
Si       2.70637173       0.00565263      -2.71674668       0.00000000
Si       2.71277370      -2.71186146       0.00048241       0.00000000
Si       2.71309950       0.00061902       2.71516507       0.00000000
Si      -0.00166158      -2.71448415       2.71461375       0.00000000
Si      -2.71505430      -2.71461447       0.00058578       0.00000000
