10
Lattice="16.28999089631971 0.0 0.0 0.0 16.28999089631971 0.0 0.0 0.0 34.45770212530097" Properties=species:S:1:pos:R:3:initial_magmoms:R:1 pbc="T T T"
Si      -1.34799750      -1.34180730      -1.37279562       0.00000000
Si       1.36739889       1.37492487      -1.36921202       0.00000000
Si      -1.43687574       1.32460506       1.35956385       0.00000000
Si       1.36785501      -1.36132272       1.49598197       0.00000000
Si       0.42187842       2.15503668       2.50583441       0.00000000
Si       2.09310210       0.40562100       2.96298500       0.00000000
Si      -2.67539792      -2.70528030      -0.00468625       0.00000000
Si       0.00633681      -2.69793351      -2.72646720       0.00000000
Si       2.72691342      -2.70075168       0.01485128       0.00000000
Si      -2.70519559       0.01539405      -2.72681178       0.00000000
