10
Lattice="16.28999089631971 0.0 0.0 0.0 16.28999089631971 0.0 0.0 0.0 34.45770212530097" Properties=species:S:1:pos:R:3:initial_magmoms:R:1 pbc="T T T"
Si      -0.61370946       1.05972966       1.91412642       0.00000000
Si       0.89391375       1.79106921      -1.19523498       0.00000000
Si      -1.85875416      -0.83043162      -1.14627056       0.00000000
Si       1.67122368      -1.74941568       0.45715059       0.00000000
Si      -0.42187842      -2.15503668      -2.50583441       0.00000000
Si       2.31995664       0.55403919      -2.52416592       0.00000000
Si       1.52217018       0.97814934       3.16421810       0.00000000
Si       3.54167406      -0.77540400      -0.92236429       0.00000000
Si       0.94597659      -3.51635940      -1.00985244       0.00000000
Si       2.52786591       2.84270274       0.06894990       0.00000000
