10
Lattice="16.28999089631971 0.0 0.0 0.0 16.28999089631971 0.0 0.0 0.0 34.45770212530097" Properties=species:S:1:pos:R:3:initial_magmoms:R:1 pbc="T T T"
Si      -1.34511417      -0.56096244       1.86550658       0.00000000
Si       1.76652018      -1.53992628      -0.35422538       0.00000000
Si      -1.40973660      -0.29983374      -1.89259035       0.00000000
Si       0.58096656       2.22514884       0.62437391       0.00000000
Si      -0.81388098       3.09625659      -1.06846502       0.00000000
Si       0.92541861      -3.23323920       1.01760543       0.00000000
Si       0.20331549      -2.00689542       2.89682618       0.00000000
Si      -1.17250533       1.78134408      -3.02518119       0.00000000
Si      -0.30817422      -1.89429894      -3.25611684       0.00000000
Si      -3.59411157      -0.97327863      -1.06608744       0.00000000
