10
Lattice="16.28999089631971 0.0 0.0 0.0 16.28999089631971 0.0 0.0 0.0 34.45770212530097" Properties=species:S:1:pos:R:3:initial_magmoms:R:1 pbc="T T T"
Si       0.84248622       1.73346777       1.36493723       0.00000000
Si       1.69937280      -1.74039102       0.30869229       0.00000000
Si      -1.80923256      -0.75126222       1.47947125       0.00000000
Si      -0.29139552       0.40316121      -2.48615906       0.00000000
Si       2.11884030       0.48395961       2.95842077       0.00000000
Si       1.80173916      -0.94354938      -3.10081589       0.00000000
Si      -0.59315148      -2.22252615       2.95307294       0.00000000
Si       2.78120799       2.57662188       0.24946719       0.00000000
Si       0.70501491      -3.51047871       1.47148395       0.00000000
Si      -3.00428325      -2.45592927       0.38804946       0.00000000
