10
Lattice="16.28999089631971 0.0 0.0 0.0 16.28999089631971 0.0 0.0 0.0 34.45770212530097" Properties=species:S:1:pos:R:3:initial_magmoms:R:1 pbc="T T T"
Si       1.33402068       1.34489436      -1.36238939       0.00000000
Si       1.35474156      -1.35775521       1.35904699       0.00000000
Si      -1.36078515       1.35519800       1.35704844       0.00000000
Si      -1.34820927      -1.36381509      -1.39416974       0.00000000
Si       2.61698850      -0.09690921      -2.72445487       0.00000000
Si       2.70953199      -2.71668330      -0.00110265       0.00000000
Si       2.71342530       2.71385928      -0.00268770       0.00000000
Si       2.71176372      -0.00058644       2.71564748       0.00000000
Si      -0.00302994       2.71406454       2.71547519       0.00000000
Si      -0.00260640      -2.71637379       2.71595760       0.00000000
