10
Lattice="16.28999089631971 0.0 0.0 0.0 16.28999089631971 0.0 0.0 0.0 34.45770212530097" Properties=species:S:1:pos:R:3:initial_magmoms:R:1 pbc="T T T"
Si      -1.33825608      -1.38002364       1.34895088       0.00000000
Si       1.35628911      -1.35855342      -1.35828892       0.00000000
Si      -1.35852084       1.35570267      -1.35939157       0.00000000
Si       1.35221661       1.38015396       1.35256894       0.00000000
Si       2.60091027      -0.02629206       2.70723980       0.00000000
Si      -2.71090035       2.71497285      -0.00037903       0.00000000
Si      -2.71269225      -2.71417464      -0.00192963       0.00000000
Si       2.71368594       2.71521504       0.00155060       0.00000000
Si      -2.71425609      -0.00071676      -2.71650892       0.00000000
Si       0.00102627       2.71436109      -2.71647447       0.00000000
