10
Lattice="16.28999089631971 0.0 0.0 0.0 16.28999089631971 0.0 0.0 0.0 34.45770212530097" Properties=species:S:1:pos:R:3:initial_magmoms:R:1 pbc="T T T"
Si       1.09437849       0.34885035       2.02611402       0.00000000
Si       0.47309418      -2.16995832      -0.81954245       0.00000000
Si      -2.36262015       0.26575506       0.26746083       0.00000000
Si       0.80312958       1.14593634      -2.01215864       0.00000000
Si      -1.29223683       2.17603842      -2.15691553       0.00000000
Si      -1.66278546      -2.08837800      -2.06963412       0.00000000
Si      -2.70824508       0.10985976      -2.10512557       0.00000000
Si       0.76201362       2.67405630       2.55721088       0.00000000
Si      -2.76990273       2.48581395       1.00571751       0.00000000
Si       2.91591000      -2.07906012      -1.51748359       0.00000000
