10
Lattice="16.28999089631971 0.0 0.0 0.0 16.28999089631971 0.0 0.0 0.0 34.45770212530097" Properties=species:S:1:pos:R:3:initial_magmoms:R:1 pbc="T T T"
Si      -0.42313275      -1.45700855      -1.72240366       0.00000000
Si       1.31527089      -1.06754072       1.62226952       0.00000000
Si      -1.88895582       0.96891291       1.13676023       0.00000000
Si       1.85673420       1.65713283      -0.77302452       0.00000000
Si       0.37688544       3.30401925       0.21580871       0.00000000
Si       0.73669896      -3.44250773      -0.88707958       0.00000000
Si      -0.86942988       2.79148698       2.22800181       0.00000000
Si      -0.01826109      -0.14472036      -3.69190364       0.00000000
Si      -2.65430889      -0.69425048       2.59476979       0.00000000
Si       0.84447360      -0.20417886       3.74090252       0.00000000
