10
Lattice="16.28999089631971 0.0 0.0 0.0 16.28999089631971 0.0 0.0 0.0 34.45770212530097" Properties=species:S:1:pos:R:3:initial_magmoms:R:1 pbc="T T T"
Si       0.32162976      -0.80639898      -2.21149656       0.00000000
Si       0.51375402       2.33563088      -0.07408410       0.00000000
Si       1.44267498      -0.64705672       1.81857516       0.00000000
Si      -2.34906687      -0.26046081       0.67871374       0.00000000
Si      -1.30785894       0.47404226      -3.33337105       0.00000000
Si      -2.05812747      -0.20001676       3.00478222       0.00000000
Si       0.52882227       2.79326585       2.32596511       0.00000000
Si      -0.11761380      -1.64439798       3.30652849       0.00000000
Si       3.24961065      -1.73052321       0.71265459       0.00000000
Si       0.23348457      -3.16515093      -2.23234348       0.00000000
