10
Lattice="16.28999089631971 0.0 0.0 0.0 16.28999089631971 0.0 0.0 0.0 34.45770212530097" Properties=species:S:1:pos:R:3:initial_magmoms:R:1 pbc="T T T"
Si      -1.81092672      -0.79141218       1.45556104       0.00000000
Si       0.91140921       1.92617847       1.32358107       0.00000000
Si      -1.25514450       0.07644897      -2.26635325       0.00000000
Si       1.90625580      -1.96426905       0.09344934       0.00000000
Si       2.39262633       0.90303615      -1.48202660       0.00000000
Si       0.64995471       1.40036985      -2.98607168       0.00000000
Si      -0.45015786      -2.10160442       2.90097631       0.00000000
Si       2.28534039       0.63604305       2.87890958       0.00000000
Si       0.83280996      -3.54340799       1.53891082       0.00000000
Si       3.59736957      -0.82145420       1.50829169       0.00000000
