10
Lattice="16.28999089631971 0.0 0.0 0.0 16.28999089631971 0.0 0.0 0.0 34.45770212530097" Properties=species:S:1:pos:R:3:initial_magmoms:R:1 pbc="T T T"
Si      -1.07344584      -1.57913894       1.44546148       0.00000000
Si       0.42376806      -1.72291448      -1.67423177       0.00000000
Si       1.69111377       1.14281485       1.41484235       0.00000000
Si      -1.90625580       1.96426905      -0.09344934       0.00000000
Si       2.11230801       1.19431243      -1.94196826       0.00000000
Si       0.48637053       2.86730520      -1.57547594       0.00000000
Si      -2.35641366      -0.13733537       2.80752697       0.00000000
Si       0.37908459       2.60031210       2.78546024       0.00000000
Si      -1.68096510      -3.45775061       0.10205706       0.00000000
Si       1.86393438      -0.79891310      -3.33054552       0.00000000
