10
Lattice="16.28999089631971 0.0 0.0 0.0 16.28999089631971 0.0 0.0 0.0 34.45770212530097" Properties=species:S:1:pos:R:3:initial_magmoms:R:1 pbc="T T T"
Si       1.35342207      -1.35422028      -1.35952940       0.00000000
Si       1.35640314       1.35861858       1.35766868       0.00000000
Si      -1.35865116      -1.35664749       1.35749639       0.00000000
Si      -1.35843939       1.35798327      -1.36170023       0.00000000
Si       2.71502172      -2.71249677      -0.00079253       0.00000000
Si       2.71388142       0.00074934       2.71499278       0.00000000
Si      -0.00099369      -2.71415835       2.71506170       0.00000000
Si       2.71295289       2.71673217       0.00003446       0.00000000
Si      -2.71712313      -2.71318095      -0.00048241       0.00000000
Si      -2.71544526       0.00057015       2.71488941       0.00000000
