10
Lattice="16.28999089631971 0.0 0.0 0.0 16.28999089631971 0.0 0.0 0.0 34.45770212530097" Properties=species:S:1:pos:R:3:initial_magmoms:R:1 pbc="T T T"
Si       1.35365013      -1.35925389       1.35522218       0.00000000
Si       1.35589815       1.35742941      -1.35790988       0.00000000
Si      -1.35878148      -1.35780408      -1.35773760       0.00000000
Si      -1.35870003       1.35830907       1.36042530       0.00000000
Si       2.71256193       2.71287144      -0.00086144       0.00000000
Si       2.71225242      -2.71551042      -0.00051687       0.00000000
Si       2.71306692       0.00024435      -2.71495833       0.00000000
Si      -0.00153126       2.71476108      -2.71492387       0.00000000
Si      -0.00198738      -2.71502172      -2.71513061       0.00000000
Si      -2.71678104       0.00026064      -2.71526844       0.00000000
