10
Lattice="16.28999089631971 0.0 0.0 0.0 16.28999089631971 0.0 0.0 0.0 34.45770212530097" Properties=species:S:1:pos:R:3:initial_magmoms:R:1 pbc="T T T"
Si      -0.69164082      -2.22505110      -0.37817349       0.00000000
Si       2.27507769       0.43365609      -0.49284879       0.00000000
Si      -1.45536489       1.53440397      -1.13676023       0.00000000
Si       0.01567098       0.52364205       2.34698432       0.00000000
Si      -1.30464981       3.10096440       0.57127456       0.00000000
Si       2.58590718      -1.34511417      -2.04134433       0.00000000
Si       1.74257388       2.05745958       2.36073295       0.00000000
Si      -1.77121170       1.97864856       2.61396274       0.00000000
Si       2.23225128       2.75882553      -1.23820376       0.00000000
Si       0.84035223      -3.60999432       0.73388055       0.00000000
