10
Lattice="16.28999089631971 0.0 0.0 0.0 16.28999089631971 0.0 0.0 0.0 34.45770212530097" Properties=species:S:1:pos:R:3:initial_magmoms:R:1 pbc="T T T"
Si       0.37646190       1.34900748       1.84865675       0.00000000
Si      -1.40849856       1.44086679      -1.19812943       0.00000000
Si       0.44155674      -2.28628521      -0.30867227       0.00000000
Si       2.19960612       0.87884550      -0.47389704       0.00000000
Si       1.31240385       2.95158510       0.20371405       0.00000000
Si       3.21064497      -0.61996482       1.15140476       0.00000000
Si       1.92236661       0.00734679       2.98683840       0.00000000
Si       0.77696784      -2.47581936      -2.60927649       0.00000000
Si       2.18422836      -2.78361891       1.19537281       0.00000000
Si      -0.96257610       3.66114492      -0.47737727       0.00000000
