10
Lattice="16.28999089631971 0.0 0.0 0.0 16.28999089631971 0.0 0.0 0.0 34.45770212530097" Properties=species:S:1:pos:R:3:initial_magmoms:R:1 pbc="T T T"
Si      -1.41359733       1.25530740       1.35579763       0.00000000
Si       1.10477151       1.70422722      -1.24049899       0.00000000
Si       1.31843115      -1.45854144       1.34526390       0.00000000
Si      -1.83306483      -0.96904323      -1.29393085       0.00000000
Si      -0.39166047      -2.48433903      -2.37740501       0.00000000
Si       2.15676342       0.26961579      -2.80812653       0.00000000
Si      -2.68995141       2.50481556      -0.23768592       0.00000000
Si      -0.75122964       3.34796967      -1.35315596       0.00000000
Si      -0.05116689       2.60680725       2.71360069       0.00000000
Si       2.66331726      -0.10581984       2.71618502       0.00000000
