10
Lattice="16.28999089631971 0.0 0.0 0.0 16.28999089631971 0.0 0.0 0.0 34.45770212530097" Properties=species:S:1:pos:R:3:initial_magmoms:R:1 pbc="T T T"
Si      -1.61248194      -1.15137720      -1.21422119       0.00000000
Si      -0.09599697       1.08439272      -2.06501678       0.00000000
Si      -1.05199191       1.43461143       1.56762754       0.00000000
Si       1.91607867      -1.33677369       1.06443347       0.00000000
Si       1.12821282       3.28691475      -0.71703072       0.00000000
Si      -2.15676342      -0.26961579       2.80812653       0.00000000
Si       0.68585787       2.39925636       2.80500811       0.00000000
Si      -2.54842389      -2.75395482       0.43072152       0.00000000
Si      -0.72527967      -3.22411680      -1.89183228       0.00000000
Si       0.62643195      -2.89637829       2.69706585       0.00000000
