10
Lattice="16.28999089631971 0.0 0.0 0.0 16.28999089631971 0.0 0.0 0.0 34.45770212530097" Properties=species:S:1:pos:R:3:initial_magmoms:R:1 pbc="T T T"
Si      -1.28296782       1.44180357       1.36206549       0.00000000
Si       1.47409839      -1.25424855       1.36114202       0.00000000
Si      -0.60751926      -1.87861167      -1.34340442       0.00000000
Si       1.07344584       1.57913894      -1.44546148       0.00000000
Si       1.49721390      -0.14377554      -3.11969325       0.00000000
Si      -2.54624103      -2.72176578      -0.22793438       0.00000000
Si      -2.61698850       0.09690921       2.72445487       0.00000000
Si       0.09254349      -2.61977409       2.72335223       0.00000000
Si      -2.64373668       2.75199580      -0.08334978       0.00000000
Si       2.76455961       2.72195379      -0.03061913       0.00000000
