10
Lattice="16.28999089631971 0.0 0.0 0.0 16.28999089631971 0.0 0.0 0.0 34.45770212530097" Properties=species:S:1:pos:R:3:initial_magmoms:R:1 pbc="T T T"
Si      -1.35702216      -1.35716877      -1.35660049       0.00000000
Si      -1.35703845       1.35694797       1.35725519       0.00000000
Si       1.35739683      -1.35757602       1.35708290       0.00000000
Si       1.35946566       1.35579830      -1.35746193       0.00000000
Si       2.71459818       0.00094482      -2.71230508       0.00000000
Si      -2.71176372       0.00058644      -2.71564748       0.00000000
Si      -0.00107514       2.71360353       2.71461375       0.00000000
Si       2.71456560       2.71479107      -0.00006892       0.00000000
Si      -2.71479366       2.71465098      -0.00017229       0.00000000
Si       2.71500543      -0.00066789       2.71485495       0.00000000
