10
Lattice="16.28999089631971 0.0 0.0 0.0 16.28999089631971 0.0 0.0 0.0 34.45770212530097" Properties=species:S:1:pos:R:3:initial_magmoms:R:1 pbc="T T T"
Si       1.35378990      -1.35739683      -1.35370604       0.00000000
Si       1.35465490       1.35738054       1.35711736       0.00000000
Si      -1.36025183      -1.35682668       1.35718627       0.00000000
Si      -1.36126181       1.35751086      -1.36170023       0.00000000
Si       2.69264219      -0.00509877      -2.72603648       0.00000000
Si       2.71051232      -2.71440270      -0.00062024       0.00000000
Si       0.01916908      -2.71896390      -2.70665746       0.00000000
Si       2.71222277       0.00032580       2.71416580       0.00000000
Si       2.71354226       2.71508688      -0.00024120       0.00000000
Si      -0.00290730      -2.71500543       2.71413134       0.00000000
