10
Lattice="16.28999089631971 0.0 0.0 0.0 16.28999089631971 0.0 0.0 0.0 34.45770212530097" Properties=species:S:1:pos:R:3:initial_magmoms:R:1 pbc="T T T"
Si      -0.61312302      -1.34555400       1.90406477       0.00000000
Si       0.51334677       2.20310847       0.88845789       0.00000000
Si      -2.16611388      -0.18683001      -1.14365177       0.00000000
Si       1.91169666      -0.91859310      -1.30219175       0.00000000
Si      -2.13802992      -2.95766127       1.04134680       0.00000000
Si       2.07363555       3.20044973      -0.59949544       0.00000000
Si       1.87211196       1.98469215       2.85620053       0.00000000
Si      -1.42716690       3.64748968       0.58671162       0.00000000
Si      -3.71511369      -1.41169140       0.16481128       0.00000000
Si       1.13920857      -2.66810652       2.76881574       0.00000000
