10
Lattice="16.28999089631971 0.0 0.0 0.0 16.28999089631971 0.0 0.0 0.0 34.45770212530097" Properties=species:S:1:pos:R:3:initial_magmoms:R:1 pbc="T T T"
Si      -1.62895113      -1.19923722      -1.12816268       0.00000000
Si      -1.46476422       1.16822106       1.45632458       0.00000000
Si       1.23983190      -1.55339811       1.43679739       0.00000000
Si       1.28964672       1.55960460      -1.63263238       0.00000000
Si      -0.34067277      -1.82654883      -2.96359632       0.00000000
Si       2.69286732       2.66488110      -0.01823158       0.00000000
Si      -0.11987811       2.52094266       2.82724570       0.00000000
Si       2.06687520      -1.40375817      -2.85384848       0.00000000
Si      -2.78319537       2.62676250       0.11106068       0.00000000
Si       2.59696809      -0.19577322       2.82273174       0.00000000
