10
Lattice="16.28999089631971 0.0 0.0 0.0 16.28999089631971 0.0 0.0 0.0 34.45770212530097" Properties=species:S:1:pos:R:3:initial_magmoms:R:1 pbc="T T T"
Si       1.85646867       0.86939730      -1.27783014       0.00000000
Si      -1.74985129       1.68873543      -0.00144722       0.00000000
Si      -0.91428114      -1.90438245      -1.25615623       0.00000000
Si       0.64878346      -0.43895034       2.47685547       0.00000000
Si       0.42525208       2.23251192      -2.76337142       0.00000000
Si      -2.32651729      -0.49495536      -2.73490935       0.00000000
Si       3.32791179       2.03369247       0.23238287       0.00000000
Si      -0.98938522       3.50326224      -1.42007161       0.00000000
Si      -1.26317125      -1.55665611       3.36744974       0.00000000
Si       2.69185245      -2.86212042      -0.36332221       0.00000000
