10
Lattice="16.28999089631971 0.0 0.0 0.0 16.28999089631971 0.0 0.0 0.0 34.45770212530097" Properties=species:S:1:pos:R:3:initial_magmoms:R:1 pbc="T T T"
Si       1.39696524      -1.29635820      -1.45773390       0.00000000
Si      -1.30342806       1.42527726      -1.45235850       0.00000000
Si       1.96898859       0.86356548       1.33034371       0.00000000
Si      -2.04923313       0.32260716       2.09454705       0.00000000
Si       0.51575769       0.23535792       3.28113315       0.00000000
Si      -0.65462994      -3.18746430       1.24950589       0.00000000
Si       2.69721675       2.72220561      -0.14620411       0.00000000
Si       0.05250267      -2.63565684      -2.82918567       0.00000000
Si      -0.25848972      -2.06609328       3.26001056       0.00000000
Si       2.74121604      -2.73212622      -0.11863793       0.00000000
