10
Lattice="16.28999089631971 0.0 0.0 0.0 16.28999089631971 0.0 0.0 0.0 34.45770212530097" Properties=species:S:1:pos:R:3:initial_magmoms:R:1 pbc="T T T"
Si       1.26905616      -1.35913986      -1.47968347       0.00000000
Si       1.47144312       1.16429517       1.51021301       0.00000000
Si      -1.85646867      -0.86939730       1.27783014       0.00000000
Si      -1.43121659       1.36311462      -1.48554128       0.00000000
Si       2.61203634       2.70707220       0.01512694       0.00000000
Si       2.60636742       0.01472616      -2.84555309       0.00000000
Si       2.61832428      -2.83175586      -0.14344749       0.00000000
Si      -2.84585390       2.63386494      -0.14224147       0.00000000
Si      -3.60631997       0.81933813       1.27638292       0.00000000
Si      -2.77074981      -2.77377975       0.02167391       0.00000000
