10
Lattice="16.28999089631971 0.0 0.0 0.0 16.28999089631971 0.0 0.0 0.0 34.45770212530097" Properties=species:S:1:pos:R:3:initial_magmoms:R:1 pbc="T T T"
Si      -2.05886052      -1.14326478      -0.15361252       0.00000000
Si       0.63185652      -0.24213456       2.26645662       0.00000000
Si      -0.22693599       2.37685761      -0.12253166       0.00000000
Si       1.89972255      -0.65425527      -1.31008257       0.00000000
Si       2.80366443       0.68545062       1.94183043       0.00000000
Si       3.48012134       1.01929788      -0.35139984       0.00000000
Si      -3.25808145      -0.30973806       1.79131910       0.00000000
Si       1.26003168      -2.52569934       2.53329722       0.00000000
Si      -1.96110423       3.10065489       1.30787727       0.00000000
Si      -2.79691155      -1.22753295      -2.43802162       0.00000000
