10
Lattice="16.28999089631971 0.0 0.0 0.0 16.28999089631971 0.0 0.0 0.0 34.45770212530097" Properties=species:S:1:pos:R:3:initial_magmoms:R:1 pbc="T T T"
Si      -1.34177472      -1.37235105      -1.35412643       0.00000000
Si       1.36064288      -1.35454608       1.35877133       0.00000000
Si      -1.35694071       1.36086660       1.36008072       0.00000000
Si       1.36860435       1.37494116      -1.36299240       0.00000000
Si      -2.53666251       0.06286311      -2.71644345       0.00000000
Si       0.09677889      -2.56789044      -2.84261729       0.00000000
Si      -2.71596654      -2.71182888       0.00285999       0.00000000
Si      -2.71285515       0.00153126       2.71709470       0.00000000
Si       0.00190593      -2.71332756       2.71709470       0.00000000
Si      -2.71362078       2.71783989       0.00472071       0.00000000
