10
Lattice="16.28999089631971 0.0 0.0 0.0 16.28999089631971 0.0 0.0 0.0 34.45770212530097" Properties=species:S:1:pos:R:3:initial_magmoms:R:1 pbc="T T T"
Si      -2.26969452       0.08754246      -0.59101884       0.00000000
Si       0.42048400      -2.17710963       0.80727550       0.00000000
Si       1.10341781      -0.30489993      -2.07814518       0.00000000
Si       0.95162759       1.94429295       1.09093146       0.00000000
Si       0.12408093       1.72711467      -2.99558201       0.00000000
Si      -2.38859523      -1.98231381      -1.81471590       0.00000000
Si       3.21965171      -1.06489359      -1.20970722       0.00000000
Si      -1.15984053      -3.50018343      -0.36232294       0.00000000
Si       2.74895216      -2.50313769       0.61334744       0.00000000
Si       1.12943294       1.37652129       3.41279610       0.00000000
