10
Lattice="16.28999089631971 0.0 0.0 0.0 16.28999089631971 0.0 0.0 0.0 34.45770212530097" Properties=species:S:1:pos:R:3:initial_magmoms:R:1 pbc="T T T"
Si       0.78475935      -2.01225483       1.03624706       0.00000000
Si      -0.14107140      -0.44942481      -2.38082180       0.00000000
Si      -2.32815281       0.71746047       0.35212345       0.00000000
Si       1.38483408       1.97716617       0.65383526       0.00000000
Si      -1.08557284      -1.74299742       2.63138048       0.00000000
Si      -2.97413276      -1.43459514       1.02070662       0.00000000
Si       1.92906669       0.91134405       2.77104210       0.00000000
Si      -0.60322847       1.67879853      -3.13482566       0.00000000
Si      -2.56810451       1.78641027      -1.79827956       0.00000000
Si      -2.12702018      -2.95507116      -0.52740988       0.00000000
