10
Lattice="16.28999089631971 0.0 0.0 0.0 16.28999089631971 0.0 0.0 0.0 34.45770212530097" Properties=species:S:1:pos:R:3:initial_magmoms:R:1 pbc="T T T"
Si      -1.32740042      -1.36347300       1.36810937       0.00000000
Si       1.34799750       1.34180730       1.37279562       0.00000000
Si       1.35433431      -1.35612621      -1.35367158       0.00000000
Si      -1.35719809       1.35720135      -1.35401616       0.00000000
Si      -0.08887824       2.66641236       2.73235947       0.00000000
Si       2.71018359      -2.71186146       0.00809756       0.00000000
Si       2.71345788       0.00058644      -2.71140918       0.00000000
Si      -0.00125433      -2.71430496      -2.71103015       0.00000000
Si      -0.00115659       2.71534752      -2.71096123       0.00000000
Si      -2.71642070       0.00073305      -2.71078894       0.00000000
