10
Lattice="16.28999089631971 0.0 0.0 0.0 16.28999089631971 0.0 0.0 0.0 34.45770212530097" Properties=species:S:1:pos:R:3:initial_magmoms:R:1 pbc="T T T"
Si       0.20737170      -0.14071302       2.33089256       0.00000000
Si      -0.20613366      -2.30386212      -0.56600253       0.00000000
Si       1.97721504       0.99696429      -0.89583184       0.00000000
Si      -1.87444306       1.46287458      -0.79721384       0.00000000
Si       0.93175542       3.19520205      -0.93132329       0.00000000
Si      -1.02541477      -1.93140756      -2.70196776       0.00000000
Si      -1.75778890      -1.66329045       2.67757170       0.00000000
Si      -3.27889097      -0.11981295       1.58126483       0.00000000
Si      -0.05155785       2.15166465       2.98462445       0.00000000
Si      -2.69321660      -0.05664033      -2.52819748       0.00000000
