10
Lattice="16.28999089631971 0.0 0.0 0.0 16.28999089631971 0.0 0.0 0.0 34.45770212530097" Properties=species:S:1:pos:R:3:initial_magmoms:R:1 pbc="T T T"
Si      -1.38578934       1.18920258       1.47773316       0.00000000
Si       1.23426886       0.95099391      -1.84147374       0.00000000
Si      -1.73887509      -1.00652652      -1.35262204       0.00000000
Si       1.32225116      -1.52495577       1.44959844       0.00000000
Si       0.18698314      -1.06205913      -2.99515270       0.00000000
Si      -2.68014387       2.52449388      -0.00325625       0.00000000
Si       2.68484450       2.56197717       0.03249019       0.00000000
Si      -0.03935012       2.53218276       2.84492940       0.00000000
Si      -2.65761480      -2.75362902      -0.00189173       0.00000000
Si      -3.54333468       0.68489676      -1.32302286       0.00000000
