10
Lattice="16.28999089631971 0.0 0.0 0.0 16.28999089631971 0.0 0.0 0.0 34.45770212530097" Properties=species:S:1:pos:R:3:initial_magmoms:R:1 pbc="T T T"
Si      -1.35631965      -1.35619137      -1.35822000       0.00000000
Si       1.35749946      -1.35772263       1.35728965       0.00000000
Si      -1.35815922       1.35772263       1.35718627       0.00000000
Si       1.35686415       1.35920502      -1.35866795       0.00000000
Si      -0.00191896       2.71627605      -2.71278749       0.00000000
Si       2.71492887      -0.00030951       2.71426917       0.00000000
Si      -2.71499144       2.71485882       0.00006892       0.00000000
Si       2.71440759       2.71549413       0.00037903       0.00000000
Si      -2.71505660      -2.71497285       0.00010337       0.00000000
Si       0.00145796      -2.71586880       2.71423471       0.00000000
