10
Lattice="16.28999089631971 0.0 0.0 0.0 16.28999089631971 0.0 0.0 0.0 34.45770212530097" Properties=species:S:1:pos:R:3:initial_magmoms:R:1 pbc="T T T"
Si       1.35657419      -1.35601218       1.35625591       0.00000000
Si       1.35636241       1.35826842      -1.35887470       0.00000000
Si      -1.35895417      -1.35682668      -1.35890916       0.00000000
Si      -1.35925973       1.36168110       1.35849567       0.00000000
Si       0.00486908      -2.70471015       2.71371785       0.00000000
Si       2.71322167       2.71518529      -0.00272216       0.00000000
Si       2.71413391      -2.71485882      -0.00182626       0.00000000
Si       2.71361263       0.00094482      -2.71571640       0.00000000
Si      -0.00079495      -2.71454931      -2.71609543       0.00000000
Si      -2.71687782      -2.71420722      -0.00065470       0.00000000
