10
Lattice="16.28999089631971 0.0 0.0 0.0 16.28999089631971 0.0 0.0 0.0 34.45770212530097" Properties=species:S:1:pos:R:3:initial_magmoms:R:1 pbc="T T T"
Si       1.32893820       1.19943270      -1.54336134       0.00000000
Si       0.24768945       0.52685118       2.29777869       0.00000000
Si      -2.03956406       1.15988058      -0.35029720       0.00000000
Si       0.25892955      -2.29237767      -0.65373189       0.00000000
Si       0.41485743      -1.79921421       2.98193675       0.00000000
Si       0.92165562       3.41949159      -0.80510466       0.00000000
Si       0.05155785      -2.15166465      -2.98462445       0.00000000
Si       2.38614291      -2.83830444       0.39230116       0.00000000
Si      -3.25087217       0.09573633      -1.99231099       0.00000000
Si      -1.44142228       3.50961927      -0.63440111       0.00000000
