10
Lattice="10.86 0.0 0.0 0.0 10.86 0.0 0.0 0.0 10.86" Properties=species:S:1:pos:R:3:initial_magmoms:R:1 pbc="T T T"
Si      -1.46248362       1.00643964      -1.37863356       0.00000000
Si       1.25251638      -1.70856036      -1.37863356       0.00000000
Si       1.37718918       1.97035152       0.83294028       0.00000000
Si      -1.46248362      -1.70856036       1.33636644       0.00000000
Si       2.26723134       0.08190612       2.55585756       0.00000000
Si      -0.26116128       2.32060824       2.58008622       0.00000000
Si      -2.81998362       2.36393964      -0.02113356       0.00000000
Si      -0.22489974       2.38769046      -2.79259470       0.00000000
Si      -2.81998362      -0.35106036       2.69386644       0.00000000
Si      -2.81998362      -0.35106036      -2.73613356       0.00000000
