10
Lattice="16.2900001489832 0.0 0.0 0.0 16.2900001489832 0.0 0.0 0.0 28.93363569536356" Properties=species:S:1:pos:R:3:initial_magmoms:R:1 pbc="T T T"
Si       1.34135119       1.39757613      -1.30649832       0.00000000
Si      -1.35568480       1.37319000       1.32212248       0.00000000
Si       1.39838248      -1.33001922       1.32799601       0.00000000
Si      -1.34884208      -1.37545577      -1.34474859       0.00000000
Si       2.70863606      -0.01357283      -2.54783809       0.00000000
Si       0.02330610      -2.67911044       2.65081290       0.00000000
Si       0.01744659       2.72363101       2.65324333       0.00000000
Si      -2.70053993      -0.02818007      -2.70931671       0.00000000
Si      -2.70666497       0.06287614       2.70636548       0.00000000
Si      -0.00507271       2.66686036      -2.76052925       0.00000000
