10
Lattice="16.2900001489832 0.0 0.0 0.0 16.2900001489832 0.0 0.0 0.0 28.93363569536356" Properties=species:S:1:pos:R:3:initial_magmoms:R:1 pbc="T T T"
Si      -1.81333766       0.83986354      -1.32423464       0.00000000
Si       0.81880057      -1.79349644      -1.36485746       0.00000000
Si      -0.21072744      -0.81251263       2.29137035       0.00000000
Si       1.78012235       1.78883750      -0.11712336       0.00000000
H       -0.36248508       2.13128588       1.36549400       0.00000000
H       -2.16735194      -2.59877630       0.59218472       0.00000000
Si       2.04814172      -0.62889175       2.85844067       0.00000000
Si       2.18242426      -0.54915220      -2.81405647       0.00000000
Si      -0.56391094       2.20356461      -2.80216475       0.00000000
Si      -1.43482321       3.20899971       1.25913396       0.00000000
