10
Lattice="16.2900001489832 0.0 0.0 0.0 16.2900001489832 0.0 0.0 0.0 28.93363569536356" Properties=species:S:1:pos:R:3:initial_magmoms:R:1 pbc="T T T"
Si       0.81818155      -0.30424833      -2.11771471       0.00000000
Si       1.91575289       0.72725077       1.19885536       0.00000000
Si      -0.76260007      -1.92547639       1.17105592       0.00000000
Si      -1.78408082       1.67114225      -0.02920822       0.00000000
H       -0.60618349      -2.64541783      -1.63079056       0.00000000
Si       0.66057580       2.05465772       2.61927697       0.00000000
Si      -2.12928221      -0.71772112       2.59668559       0.00000000
Si      -0.57780631       3.32560353       1.09300165       0.00000000
Si      -0.58073851      -1.93477961      -2.95705055       0.00000000
Si       2.81782794      -1.49770261      -1.77803383       0.00000000
