10
Lattice="16.2900001489832 0.0 0.0 0.0 16.2900001489832 0.0 0.0 0.0 28.93363569536356" Properties=species:S:1:pos:R:3:initial_magmoms:R:1 pbc="T T T"
Si      -1.35195598       1.35099487       1.36850310       0.00000000
Si       1.36319608      -1.33779997       1.37047059       0.00000000
Si       1.38303730       1.37668420      -1.31095410       0.00000000
Si      -1.35016408      -1.35780409      -1.36824270       0.00000000
Si       2.72192870       0.00700470      -2.66956190       0.00000000
Si       0.01879866       2.71617833      -2.68281350       0.00000000
Si      -0.01479132      -2.71212701       2.69704885       0.00000000
Si       2.68558571      -2.72745916      -0.00917196       0.00000000
Si      -2.71303436       2.70673013       0.01423535       0.00000000
Si      -2.72746730       0.00529425      -2.69655698       0.00000000
