10
Lattice="16.2900001489832 0.0 0.0 0.0 16.2900001489832 0.0 0.0 0.0 28.93363569536356" Properties=species:S:1:pos:R:3:initial_magmoms:R:1 pbc="T T T"
Si      -0.00790065       0.99309868      -2.06759761       0.00000000
Si      -2.00093330      -0.40763445       1.06325324       0.00000000
Si       0.90347599       1.52297981       1.51059619       0.00000000
Si       0.85209733      -2.18025851       0.35050206       0.00000000
H       -2.76374514       0.82509991       1.45203451       0.00000000
Si       0.81103024       0.09532582       3.32919092       0.00000000
Si      -1.26056908      -0.62478341      -3.23249471       0.00000000
Si       1.70854409      -1.84735606       2.47515680       0.00000000
Si      -1.31056309      -0.90633163       3.20541283       0.00000000
Si       2.55945224      -2.25848309      -1.20572247       0.00000000
