10
Lattice="16.2900001489832 0.0 0.0 0.0 16.2900001489832 0.0 0.0 0.0 28.93363569536356" Properties=species:S:1:pos:R:3:initial_magmoms:R:1 pbc="T T T"
Si      -0.09993915      -2.25835440      -0.43458321       0.00000000
Si       1.26506512       0.16039134      -1.95096612       0.00000000
Si       1.41450958       1.34387614       1.28610011       0.00000000
Si      -2.19305756       0.76538566       0.27475380       0.00000000
H        2.73723153       0.17632296      -1.48253056       0.00000000
H        1.25884234      -1.10462491      -2.80439264       0.00000000
Si      -1.85179835       1.24988284       2.62037472       0.00000000
Si       1.77284922      -0.04298931       3.09338179       0.00000000
Si      -1.41649696      -2.28651981      -2.37620377       0.00000000
Si       0.49782240       2.09046314      -2.95921652       0.00000000
