10
Lattice="16.2900001489832 0.0 0.0 0.0 16.2900001489832 0.0 0.0 0.0 28.93363569536356" Properties=species:S:1:pos:R:3:initial_magmoms:R:1 pbc="T T T"
Si       1.25517709      -1.32740695      -1.42042162       0.00000000
Si       1.43058781       1.35558865       1.22776411       0.00000000
Si      -1.37844352      -1.39826845       1.25687135       0.00000000
Si      -1.23838210       1.27094581      -1.52627532       0.00000000
Si      -0.66057580      -2.05465772      -2.61927697       0.00000000
Si       0.66124369       2.00409356      -2.77709838       0.00000000
Si      -2.44465661      -0.38351547      -2.64848519       0.00000000
Si       2.37491912       0.22367799      -2.76169903       0.00000000
Si       0.01550808       2.69011433       2.52980665       0.00000000
Si       2.74660806      -0.07087779       2.52592954       0.00000000
