10
Lattice="16.2900001489832 0.0 0.0 0.0 16.2900001489832 0.0 0.0 0.0 28.93363569536356" Properties=species:S:1:pos:R:3:initial_magmoms:R:1 pbc="T T T"
Si       1.36324495      -1.35202114      -1.35157692       0.00000000
Si      -1.35151615       1.31830084      -1.40273159       0.00000000
Si      -1.36858807      -1.36146934       1.34547193       0.00000000
Si       1.38885283       1.35790183       1.33343553       0.00000000
Si      -0.02766042      -2.69259041      -2.69178293       0.00000000
Si      -2.69343749       2.69933447      -0.05361403       0.00000000
Si       0.05018949       2.72704376       2.68246630       0.00000000
Si      -2.74538631       0.00589698       2.66967763       0.00000000
Si      -0.00750969      -2.71720460       2.69973968       0.00000000
Si       0.01497051       2.66817170      -2.74823245       0.00000000
