10
Lattice="16.2900001489832 0.0 0.0 0.0 16.2900001489832 0.0 0.0 0.0 28.93363569536356" Properties=species:S:1:pos:R:3:initial_magmoms:R:1 pbc="T T T"
H       -0.28564515      -1.17011071      -0.92272258       0.00000000
Si      -0.97394653       1.66447964      -1.27672561       0.00000000
Si       2.27760266       0.17262513      -0.49407076       0.00000000
Si      -1.40844970      -0.68287681       1.74741799       0.00000000
H       -0.18658566       1.71805745       2.00747351       0.00000000
H       -0.36720918       2.40459950       2.31694768       0.00000000
Si      -1.92495674       0.25392852      -2.86850958       0.00000000
Si       2.52405407      -1.98628859      -1.42260900       0.00000000
Si       0.51515496      -2.50328432      -2.50420617       0.00000000
Si      -3.40913865      -1.02064996       0.48052982       0.00000000
