10
Lattice="16.2900001489832 0.0 0.0 0.0 16.2900001489832 0.0 0.0 0.0 28.93363569536356" Properties=species:S:1:pos:R:3:initial_magmoms:R:1 pbc="T T T"
Si       0.15716592       1.82198765      -1.44934368       0.00000000
Si       1.51319440      -1.35426916      -1.19180539       0.00000000
Si       1.21358872       1.44738280       1.62401604       0.00000000
Si      -2.31731768      -0.99046459      -0.19900555       0.00000000
H       -0.78423319      -1.81288154       1.99381684       0.00000000
Si      -3.41283648       0.89562421       0.55995265       0.00000000
Si       3.25470945       0.17337447      -1.57289030       0.00000000
Si       2.40161843       2.30229830      -1.61012789       0.00000000
Si       0.19231974      -2.24233481      -2.94208781       0.00000000
Si      -0.74034793       3.76466953      -0.59530955       0.00000000
