10
Lattice="16.2900001489832 0.0 0.0 0.0 16.2900001489832 0.0 0.0 0.0 28.93363569536356" Properties=species:S:1:pos:R:3:initial_magmoms:R:1 pbc="T T T"
H       -0.04740390       0.14198364      -1.52332699       0.00000000
Si      -2.15358689      -0.88586650       0.14278749       0.00000000
Si       0.03692943       2.32601654       0.36308819       0.00000000
Si       1.73322344      -1.69766237       0.09571247       0.00000000
Si       0.66899773      -1.90754273       2.27357616       0.00000000
Si       1.39196422      -2.18215955      -2.24990845       0.00000000
Si      -2.14439933      -1.81372862      -1.99080774       0.00000000
Si       3.47431494      -0.17288577      -0.12479077       0.00000000
Si      -3.33242904       1.11602791       0.15465028       0.00000000
Si      -0.39529314      -0.12139308       3.51786051       0.00000000
