10
Lattice="16.2900001489832 0.0 0.0 0.0 16.2900001489832 0.0 0.0 0.0 28.93363569536356" Properties=species:S:1:pos:R:3:initial_magmoms:R:1 pbc="T T T"
Si      -1.40990359      -1.39618007       1.21142239       0.00000000
Si      -1.39322263       1.39712815      -1.26324253       0.00000000
Si       1.31905588      -1.38099454      -1.36167476       0.00000000
Si       1.24779854       1.38859219       1.42448969       0.00000000
Si      -2.42255515       0.01930365       2.77360725       0.00000000
Si       2.62307691       2.69312798       0.04389233       0.00000000
Si       2.54942982      -0.01399311       2.77285498       0.00000000
Si      -0.02959893       2.64147239      -2.71244155       0.00000000
Si       2.66521914      -0.02907765      -2.71044512       0.00000000
Si       2.66792328      -2.73461308      -0.00341417       0.00000000
