10
Lattice="16.2900001489832 0.0 0.0 0.0 16.2900001489832 0.0 0.0 0.0 28.93363569536356" Properties=species:S:1:pos:R:3:initial_magmoms:R:1 pbc="T T T"
Si       0.58759660       2.14422014      -0.51976383       0.00000000
Si      -0.19248264      -0.96282046      -2.15379091       0.00000000
Si      -2.04159314       0.68408227       0.98692631       0.00000000
Si       1.51661530      -0.93035449       1.68521068       0.00000000
H       -1.17494884      -1.75225016       2.20890948       0.00000000
H       -0.99432532      -2.43879221       1.89943532       0.00000000
Si      -3.11253033      -1.07349472      -0.10907981       0.00000000
Si      -1.78168619      -2.49237002      -1.38476380       0.00000000
Si       1.28829466       2.78273928       1.59522707       0.00000000
Si      -1.27154854       0.65635669       3.17523505       0.00000000
