10
Lattice="16.2900001489832 0.0 0.0 0.0 16.2900001489832 0.0 0.0 0.0 28.93363569536356" Properties=species:S:1:pos:R:3:initial_magmoms:R:1 pbc="T T T"
H        0.02534724       0.07522722       0.78818117       0.00000000
H       -0.85752190      -0.38841876      -2.08200656       0.00000000
Si      -0.62687179      -2.08831286      -1.48999544       0.00000000
Si       1.91572031       1.33113736      -1.32539198       0.00000000
H       -2.37311093       0.53800983       1.13903044       0.00000000
H        0.76201363      -2.38242881       1.15598555       0.00000000
Si      -0.08496864       0.99336421      -2.59228016       0.00000000
H        1.37445247       1.62662167       1.98562862       0.00000000
Si       2.78552487      -0.68593933      -0.55118576       0.00000000
Si       2.14868360      -1.84810052       1.37292995       0.00000000
