10
Lattice="16.2900001489832 0.0 0.0 0.0 16.2900001489832 0.0 0.0 0.0 28.93363569536356" Properties=species:S:1:pos:R:3:initial_magmoms:R:1 pbc="T T T"
Si       1.36179514       1.39048183       1.26225879       0.00000000
Si      -1.29520162       1.35928648      -1.38155217       0.00000000
Si       1.35005005      -1.39222486      -1.31448400       0.00000000
Si      -1.33846786      -1.30956940       1.44095292       0.00000000
Si       2.26986491       0.06555096       2.92119773       0.00000000
Si      -2.63679716       2.70492194      -0.03790306       0.00000000
Si      -2.64735308      -2.72829809       0.13251605       0.00000000
Si       2.84692188      -0.02205666      -2.52402571       0.00000000
Si       0.12518865       2.68278383       2.70564214       0.00000000
Si       0.09951561       2.71207325      -2.69016265       0.00000000
