10
Lattice="16.2900001489832 0.0 0.0 0.0 16.2900001489832 0.0 0.0 0.0 28.93363569536356" Properties=species:S:1:pos:R:3:initial_magmoms:R:1 pbc="T T T"
Si       1.41051853      -1.65923426       0.96184085       0.00000000
Si      -1.78908022       0.22631697       1.57456845       0.00000000
Si       0.25223436       2.25077303      -0.83710795       0.00000000
Si      -0.34793811      -0.39721536      -2.37024344       0.00000000
H        1.44523252       0.95179213       1.86853419       0.00000000
H       -1.85632045      -2.39181185       0.08604863       0.00000000
H        2.96082156       0.02536353      -1.35250280       0.00000000
Si      -0.70222933       1.82651627      -2.96118401       0.00000000
Si       3.19147167      -1.67453057      -0.76049168       0.00000000
Si       0.24547401      -3.66142188       0.64232671       0.00000000
