10
Lattice="16.2900001489832 0.0 0.0 0.0 16.2900001489832 0.0 0.0 0.0 28.93363569536356" Properties=species:S:1:pos:R:3:initial_magmoms:R:1 pbc="T T T"
Si      -1.31668813      -1.28049501       1.45907406       0.00000000
Si       1.35806473       1.36303318       1.35774847       0.00000000
Si      -1.44630766       1.46000755      -1.17571539       0.00000000
Si       1.43576803      -1.36073792      -1.31864466       0.00000000
Si       2.55932192       0.20496078      -2.64802659       0.00000000
Si      -2.68294673      -2.55128607       0.07890202       0.00000000
Si       0.08480574      -2.60249042      -2.74961259       0.00000000
Si       2.71212212       0.01231524       2.72358968       0.00000000
Si       0.03274290      -2.71272241       2.72743785       0.00000000
Si       2.75108781       2.70736544       0.03358327       0.00000000
