10
Lattice="16.2900001489832 0.0 0.0 0.0 16.2900001489832 0.0 0.0 0.0 28.93363569536356" Properties=species:S:1:pos:R:3:initial_magmoms:R:1 pbc="T T T"
Si      -1.36625860      -1.27079106      -1.38017204       0.00000000
Si       1.34943103      -1.43222740       1.26836379       0.00000000
Si      -1.37256283       1.32426624       1.35782659       0.00000000
Si       1.31668813       1.28049501      -1.45907406       0.00000000
Si       2.67475286       2.64352819      -0.10132559       0.00000000
Si       2.68332140      -0.05769104       2.63779277       0.00000000
Si      -0.12961953       2.74050256      -2.63478945       0.00000000
Si      -0.01531260       2.68692475       2.69403975       0.00000000
Si      -0.03080439      -2.78087896       2.61085555       0.00000000
Si      -2.73898434      -0.06291524       2.66070820       0.00000000
