10
Lattice="16.2900001489832 0.0 0.0 0.0 16.2900001489832 0.0 0.0 0.0 28.93363569536356" Properties=species:S:1:pos:R:3:initial_magmoms:R:1 pbc="T T T"
Si       1.53235144       1.31681357      -1.17519748       0.00000000
Si      -1.45199287      -1.30232524      -1.31477334       0.00000000
Si      -0.60562963       0.79986670       2.13420284       0.00000000
Si       1.60192603      -1.33523593       1.11411858       0.00000000
H        2.60477102       1.33642673      -0.08280807       0.00000000
Si       0.69859666      -0.89302921       3.21947458       0.00000000
H       -1.42886107       2.74764573      -1.67143827       0.00000000
Si       1.12591594      -3.53066694       0.48081916       0.00000000
Si       2.54500301      -0.09867016      -2.73738234       0.00000000
Si       0.28846332       3.05342532       2.21816825       0.00000000
