10
Lattice="16.2900001489832 0.0 0.0 0.0 16.2900001489832 0.0 0.0 0.0 28.93363569536356" Properties=species:S:1:pos:R:3:initial_magmoms:R:1 pbc="T T T"
Si       1.44653572      -1.29114541       1.27961897       0.00000000
Si      -0.96661603       0.80878222       1.95895180       0.00000000
Si      -1.31545009      -1.26900730      -1.46392623       0.00000000
Si       1.29645595       1.39843445      -1.37570758       0.00000000
H       -0.22022451       0.18186156       3.12575853       0.00000000
Si       2.68314221      -2.58344741      -0.16376438       0.00000000
Si       2.58450626       2.77889158      -0.04305325       0.00000000
Si      -2.69221574      -2.68669343      -0.29437081       0.00000000
Si       0.02614545      -2.61464276      -2.80757534       0.00000000
Si      -0.91740394       3.08412057       2.11371782       0.00000000
