10
Lattice="16.2900001489832 0.0 0.0 0.0 16.2900001489832 0.0 0.0 0.0 28.93363569536356" Properties=species:S:1:pos:R:3:initial_magmoms:R:1 pbc="T T T"
Si       1.29451744       1.31438798      -1.40168998       0.00000000
Si       1.89710084      -0.88102837       1.02945876       0.00000000
Si      -1.34877943      -1.56859669      -1.09574572       0.00000000
Si      -1.30183165       1.36001953       1.41566493       0.00000000
Si       1.27607716      -0.86832217       3.21125742       0.00000000
Si      -2.72932437      -0.18011853      -2.44700437       0.00000000
Si       2.69516423       2.56367461      -0.00694407       0.00000000
Si      -0.09225027       2.58808518      -2.72488301       0.00000000
Si       2.70472646      -0.12543300      -2.62185033       0.00000000
Si      -2.62599689       0.02443500       2.76886214       0.00000000
