10
Lattice="16.2900001489832 0.0 0.0 0.0 16.2900001489832 0.0 0.0 0.0 28.93363569536356" Properties=species:S:1:pos:R:3:initial_magmoms:R:1 pbc="T T T"
Si      -2.14860215      -0.54428149      -0.80091197       0.00000000
Si       1.50506569      -1.33258717      -1.25447564       0.00000000
Si       0.54972234       2.23519979      -0.65520218       0.00000000
Si       0.27528471      -0.77356324       2.25303328       0.00000000
H       -0.91714330       0.66686374      -2.53912907       0.00000000
H       -1.09776682       1.35340579      -2.22965490       0.00000000
H        0.19095138      -2.95759614       0.36661810       0.00000000
H       -2.68027517      -1.43858620       0.51183602       0.00000000
Si       0.23835528      -3.09957978       1.88994508       0.00000000
Si      -1.79271452      -0.52830099       3.24415497       0.00000000
