10
Lattice="16.2900001489832 0.0 0.0 0.0 16.2900001489832 0.0 0.0 0.0 28.93363569536356" Properties=species:S:1:pos:R:3:initial_magmoms:R:1 pbc="T T T"
Si      -1.29259522      -1.38061009      -1.34069209       0.00000000
Si       1.33688773      -1.37956753       1.33051324       0.00000000
Si       1.32897079       1.30072393      -1.42158764       0.00000000
Si      -1.42570081       1.37609776       1.25765834       0.00000000
Si       2.63021600       2.63472833       0.02198956       0.00000000
Si      -0.07499916       2.70335810       2.64450537       0.00000000
Si       2.67279806      -0.02836089       2.69482096       0.00000000
Si      -2.69065190      -2.67978647       0.05297749       0.00000000
Si      -0.03675024      -2.71521722       2.67968867       0.00000000
Si       2.67558365      -2.73673632      -0.04481820       0.00000000
