10
Lattice="16.2900001489832 0.0 0.0 0.0 16.2900001489832 0.0 0.0 0.0 28.93363569536356" Properties=species:S:1:pos:R:3:initial_magmoms:R:1 pbc="T T T"
Si      -1.39903408      -1.36681246       1.28543463       0.00000000
Si       1.33866334      -1.36914193      -1.34903076       0.00000000
Si      -1.36244674       1.33012738      -1.38959572       0.00000000
Si       1.37081980       1.32085837       1.40536455       0.00000000
Si      -2.72183096       0.09086562       2.52072728       0.00000000
Si       2.66569562       2.70878267       0.02815243       0.00000000
Si       2.66295890       0.00239463      -2.72277085       0.00000000
Si      -0.02713914       2.71608059       2.67592730       0.00000000
Si       2.68934870      -2.70269021       0.05893782       0.00000000
Si      -0.10437003      -2.72534960       2.67647704       0.00000000
