10
Lattice="16.2900001489832 0.0 0.0 0.0 16.2900001489832 0.0 0.0 0.0 28.93363569536356" Properties=species:S:1:pos:R:3:initial_magmoms:R:1 pbc="T T T"
Si       1.27788535      -1.69841171       1.02283296       0.00000000
Si      -1.22901535      -1.38676771      -1.46285569       0.00000000
Si      -1.44866971       1.39512448       1.27349343       0.00000000
Si       1.51167943       1.29166669      -1.33502688       0.00000000
Si      -1.18889308       2.64536570      -0.90270050       0.00000000
H        0.86604157       2.69343749      -1.39630832       0.00000000
Si       0.68261617      -1.71051518      -2.67063244       0.00000000
Si       0.77098942       0.49612824      -3.35864537       0.00000000
Si       2.00769365      -2.66892104      -1.01322699       0.00000000
Si       0.24907410       2.31357098       2.61952696       0.00000000
