10
Lattice="16.2900001489832 0.0 0.0 0.0 16.2900001489832 0.0 0.0 0.0 28.93363569536356" Properties=species:S:1:pos:R:3:initial_magmoms:R:1 pbc="T T T"
Si       1.23660649      -1.29230200      -1.44338335       0.00000000
Si      -1.44653572       1.29114541      -1.27961897       0.00000000
Si       1.73877833       1.13042827       1.12482402       0.00000000
Si      -0.83447155      -1.28715436       1.82906871       0.00000000
H       -1.66676024       1.47300697       1.84613956       0.00000000
Si      -2.41315175       2.09992763       0.67933283       0.00000000
Si       2.14467626      -2.61723287       0.21555559       0.00000000
Si       3.21561345      -0.85965589       1.31156171       0.00000000
Si       0.46068120       1.84751408       3.06945368       0.00000000
Si       0.48420396      -3.24399063       1.69287809       0.00000000
