10
Lattice="16.2900001489832 0.0 0.0 0.0 16.2900001489832 0.0 0.0 0.0 28.93363569536356" Properties=species:S:1:pos:R:3:initial_magmoms:R:1 pbc="T T T"
Si      -1.36287028      -1.35001747      -1.34567446       0.00000000
Si      -1.40486590       1.31660684       1.33838319       0.00000000
Si       1.35003376      -1.34612416       1.37319035       0.00000000
Si       1.35987292       1.39505216      -1.31384746       0.00000000
Si      -0.07069860       2.78363034       2.54523406       0.00000000
Si       2.67778280       0.01337409      -2.69105959       0.00000000
Si       2.72627813       0.07011216       2.64826674       0.00000000
Si      -2.70971120      -2.67887423       0.04878211       0.00000000
Si       2.70045848      -2.70529661       0.01258613       0.00000000
Si      -0.00030951       2.72825411      -2.68101962       0.00000000
