10
Lattice="16.2900001489832 0.0 0.0 0.0 16.2900001489832 0.0 0.0 0.0 28.93363569536356" Properties=species:S:1:pos:R:3:initial_magmoms:R:1 pbc="T T T"
Si       1.21228552       0.11355759      -1.89402473       0.00000000
Si       0.74069002       0.79553845       2.02361848       0.00000000
Si      -0.08837325      -2.20664342       0.68801292       0.00000000
Si      -1.88835311       1.35858601       0.18931278       0.00000000
H        0.09505215       2.19730925       1.96233704       0.00000000
Si      -3.24060068      -0.55869814       0.42931729       0.00000000
Si       3.03731940      -1.03557160      -0.90038581       0.00000000
Si      -2.00000477      -1.88289596       1.89578968       0.00000000
Si      -0.77098942      -0.49612824       3.35864537       0.00000000
Si      -0.25223436       3.46270180      -0.99086129       0.00000000
