10
Lattice="16.2900001489832 0.0 0.0 0.0 16.2900001489832 0.0 0.0 0.0 28.93363569536356" Properties=species:S:1:pos:R:3:initial_magmoms:R:1 pbc="T T T"
Si       1.30830807      -1.35663121      -1.33329087       0.00000000
Si      -1.42263878      -1.24784659       1.32837215       0.00000000
Si       1.29179815       1.30473127       1.44601631       0.00000000
Si      -1.44951728       1.39176874      -1.21327415       0.00000000
Si      -2.25714291       0.63617338       2.43803494       0.00000000
Si      -0.50456695       2.26510823       2.56120543       0.00000000
Si       2.67818957       0.04297302      -2.57558545       0.00000000
Si      -0.08396436       2.74814860      -2.53753772       0.00000000
Si       2.67724475      -2.61636950       0.05520538       0.00000000
Si      -2.82576165      -0.02446758      -2.48835054       0.00000000
