10
Lattice="16.2900001489832 0.0 0.0 0.0 16.2900001489832 0.0 0.0 0.0 28.93363569536356" Properties=species:S:1:pos:R:3:initial_magmoms:R:1 pbc="T T T"
Si      -0.34658604       1.84151936       1.38450340       0.00000000
Si       1.89353333       0.84040111      -1.07259881       0.00000000
Si      -0.95446369      -0.42425676      -2.12407606       0.00000000
Si      -0.25223436      -2.25077303       0.83710795       0.00000000
Si      -0.60017248      -2.64798839      -1.53313549       0.00000000
H       -1.42565194       1.55374021       2.41268908       0.00000000
H        1.19299816      -1.29898090       2.70564214       0.00000000
Si      -0.96976000       2.75475306      -1.89550034       0.00000000
H        2.70858719      -2.22540950      -0.51539485       0.00000000
Si       1.54149013       1.83255986       2.74539696       0.00000000
