10
Lattice="16.2900001489832 0.0 0.0 0.0 16.2900001489832 0.0 0.0 0.0 28.93363569536356" Properties=species:S:1:pos:R:3:initial_magmoms:R:1 pbc="T T T"
Si       1.89069887      -0.36676935       1.31387640       0.00000000
Si      -1.50506569       1.33258717       1.25447564       0.00000000
Si       0.93025675       1.26809506      -1.78274596       0.00000000
Si      -0.44572698      -2.23920713      -0.71862471       0.00000000
H       -1.31411431      -1.62500896       1.62109374       0.00000000
H       -2.42220899       1.99945091      -1.28465342       0.00000000
Si       3.29548332      -1.05625990      -0.53602453       0.00000000
Si       3.26397846       1.07727400      -1.46109074       0.00000000
Si      -0.95534335       3.56778696       0.59927346       0.00000000
Si      -1.22978098       0.55902394       3.50750892       0.00000000
