10
Lattice="16.2900001489832 0.0 0.0 0.0 16.2900001489832 0.0 0.0 0.0 28.93363569536356" Properties=species:S:1:pos:R:3:initial_magmoms:R:1 pbc="T T T"
Si       1.35322660      -1.40297626       1.32053113       0.00000000
Si      -1.31655781       1.53052696       1.26428415       0.00000000
Si       1.59169591       1.48130412      -1.04945190       0.00000000
Si      -1.21358872      -1.44738280      -1.62401604       0.00000000
Si      -1.05642280       0.37460484      -3.07335972       0.00000000
Si       1.18802971       0.85491550      -3.23414393       0.00000000
Si      -1.95393665       2.31728673      -2.21932559       0.00000000
Si      -0.04184901      -2.69495246       2.66098886       0.00000000
Si       2.70086573      -0.05654259       2.71885613       0.00000000
H       -1.99782191      -3.26026434       0.36980080       0.00000000
