10
Lattice="16.2900001489832 0.0 0.0 0.0 16.2900001489832 0.0 0.0 0.0 28.93363569536356" Properties=species:S:1:pos:R:3:initial_magmoms:R:1 pbc="T T T"
Si      -1.36018243       1.33320196      -1.36717215       0.00000000
Si      -1.35987292      -1.39505216       1.31384746       0.00000000
Si       1.31790988      -1.38167806      -1.37721213       0.00000000
Si       1.34457661       1.39832938       1.34136335       0.00000000
Si       2.73195813       0.03143986       2.63785063       0.00000000
Si      -2.70585047       2.69207630       0.01244146       0.00000000
Si       2.69555679       2.70864323      -0.04287965       0.00000000
Si       2.70239950      -0.04000254      -2.70975072       0.00000000
Si      -2.76473883      -0.07844531       2.65223065       0.00000000
Si      -0.01469358       2.68370324      -2.74044930       0.00000000
