10
Lattice="16.2900001489832 0.0 0.0 0.0 16.2900001489832 0.0 0.0 0.0 28.93363569536356" Properties=species:S:1:pos:R:3:initial_magmoms:R:1 pbc="T T T"
Si       1.34218198      -1.45735228       1.22991099       0.00000000
Si       1.41947803       1.32186835      -1.32229608       0.00000000
Si      -1.35485560       1.32059773       1.41468118       0.00000000
Si      -1.35470899      -1.40199886      -1.34495112       0.00000000
H        2.45021150      -0.78281596       1.98533928       0.00000000
Si      -0.04893516      -2.63896862       2.71310702       0.00000000
Si       0.03481173       2.67836924      -2.67456742       0.00000000
Si      -2.70646949       2.64842822       0.00905623       0.00000000
Si       2.63226854      -2.74643375      -0.21497691       0.00000000
Si      -2.71790507      -0.06419889      -2.71542171       0.00000000
