10
Lattice="16.2900001489832 0.0 0.0 0.0 16.2900001489832 0.0 0.0 0.0 28.93363569536356" Properties=species:S:1:pos:R:3:initial_magmoms:R:1 pbc="T T T"
Si       0.82288643       0.58477843      -2.07940253       0.00000000
Si       0.03150486      -2.13353390       0.92506620       0.00000000
Si       0.10117719       1.54049644       1.76064067       0.00000000
Si      -2.33372171       0.19082106      -0.32165523       0.00000000
H       -1.23528700       2.24394752       1.52659649       0.00000000
H        2.47446731       0.58083625       2.08785115       0.00000000
Si      -1.37327959      -1.44404335       2.77496713       0.00000000
Si      -3.26397846      -1.07727400       1.46109074       0.00000000
Si      -0.84255139       1.94298977      -3.11296986       0.00000000
Si       3.55353321       0.86861539       1.05966547       0.00000000
