10
Lattice="16.2900001489832 0.0 0.0 0.0 16.2900001489832 0.0 0.0 0.0 28.93363569536356" Properties=species:S:1:pos:R:3:initial_magmoms:R:1 pbc="T T T"
Si       1.74109151       1.52477659      -0.22050324       0.00000000
Si      -0.34125921      -0.48449718      -2.34562091       0.00000000
Si      -1.73322344       1.69766237      -0.09571247       0.00000000
Si      -1.06422571      -0.20988036       2.17786369       0.00000000
Si       1.39556431      -1.77634307       1.10078017       0.00000000
H       -1.78062734       1.83964601      -1.61903945       0.00000000
Si       1.85179835      -1.24988284      -2.62037472       0.00000000
Si       3.26630793       0.09399330      -1.33427461       0.00000000
Si      -2.26207829      -1.82289989      -2.11267621       0.00000000
Si       0.75737098      -1.22986243       3.29111426       0.00000000
