10
Lattice="16.2900001489832 0.0 0.0 0.0 16.2900001489832 0.0 0.0 0.0 28.93363569536356" Properties=species:S:1:pos:R:3:initial_magmoms:R:1 pbc="T T T"
Si      -1.33688773       1.37956753      -1.33051324       0.00000000
Si       1.33591033       1.35120664       1.36430772       0.00000000
Si      -1.37363797      -1.33564969       1.34917543       0.00000000
Si       1.33869592      -1.35716878      -1.37533144       0.00000000
Si      -2.62948295      -0.00104256      -2.67120533       0.00000000
Si      -0.01347183      -2.68394042       2.68538860       0.00000000
Si       2.70797893      -0.01629000       2.67161619       0.00000000
Si       2.69687338       2.69200397       0.01701298       0.00000000
Si      -0.04228884       2.73398330       2.67092178       0.00000000
Si       2.69456607      -2.72885195      -0.04290858       0.00000000
