10
Lattice="16.2900001489832 0.0 0.0 0.0 16.2900001489832 0.0 0.0 0.0 28.93363569536356" Properties=species:S:1:pos:R:3:initial_magmoms:R:1 pbc="T T T"
H        1.27159741       0.73583560       0.42327016       0.00000000
Si       0.35707680      -2.25432425       0.67189689       0.00000000
Si      -1.48610413       1.23471685       1.42990028       0.00000000
Si      -0.12574251      -0.11881926      -2.41245761       0.00000000
H       -0.09102852       2.49220712      -1.50576427       0.00000000
H       -1.86233798      -2.59908418       1.04783162       0.00000000
H        3.04409604      -0.42823152      -1.48880916       0.00000000
H        2.37908936      -2.29861676      -1.35658244       0.00000000
H        2.30742965       2.02942451      -1.85661354       0.00000000
Si      -0.24884604       3.60167016      -0.50133311       0.00000000
