10
Lattice="16.2900001489832 0.0 0.0 0.0 16.2900001489832 0.0 0.0 0.0 28.93363569536356" Properties=species:S:1:pos:R:3:initial_magmoms:R:1 pbc="T T T"
Si       1.40027212       1.35001747       1.28685238       0.00000000
Si      -1.30163128       1.40258530      -1.34836529       0.00000000
Si       1.38505726      -1.39374472      -1.32296156       0.00000000
Si      -1.24908789      -0.61704892       1.93658610       0.00000000
Si      -2.26258817       1.50156334       2.20859121       0.00000000
Si      -0.14362893       2.28089324       2.83280547       0.00000000
Si       2.52462422      -0.16609284       2.63339485       0.00000000
Si       0.53341605      -1.10824129       3.47724434       0.00000000
Si      -2.71331129       2.57572595       0.18720062       0.00000000
Si      -2.54942982       0.01399311      -2.77285498       0.00000000
