10
Lattice="16.2900001489832 0.0 0.0 0.0 16.2900001489832 0.0 0.0 0.0 28.93363569536356" Properties=species:S:1:pos:R:3:initial_magmoms:R:1 pbc="T T T"
Si       1.39461949       1.26353386      -1.34350444       0.00000000
Si       1.35255871      -1.32730921       1.35250280       0.00000000
Si      -1.38851074      -1.13235049      -1.51771386       0.00000000
Si      -1.30171762       1.38536677       1.41954203       0.00000000
H       -2.09062604       2.30586581       0.50995533       0.00000000
Si      -3.45650997      -0.88708825      -0.52659217       0.00000000
Si       2.57390147       2.71112843       0.11796243       0.00000000
Si       2.59084307       0.14261895       2.76367723       0.00000000
Si      -0.07379370      -2.53337195       2.82193800       0.00000000
Si       2.86202271      -2.55068822      -0.05691246       0.00000000
