10
Lattice="16.2900001489832 0.0 0.0 0.0 16.2900001489832 0.0 0.0 0.0 28.93363569536356" Properties=species:S:1:pos:R:3:initial_magmoms:R:1 pbc="T T T"
Si      -1.32897079      -1.30072393       1.42158764       0.00000000
Si      -1.38921121       1.33851673      -1.35081308       0.00000000
Si       1.30124521       1.33400440       1.44357721       0.00000000
Si       1.33628500      -1.39004200      -1.38827924       0.00000000
Si      -2.55627569      -0.14729418      -2.73241443       0.00000000
Si      -2.62156601      -2.68133402       0.08089555       0.00000000
Si       0.00586440       2.63049293      -2.69127080       0.00000000
Si       2.65898414       2.66453903       0.12079214       0.00000000
Si       2.70141406      -2.69664662       0.00321163       0.00000000
Si       0.00791694      -2.68029146       2.75210088       0.00000000
