10
Lattice="16.2900001489832 0.0 0.0 0.0 16.2900001489832 0.0 0.0 0.0 28.93363569536356" Properties=species:S:1:pos:R:3:initial_magmoms:R:1 pbc="T T T"
Si      -1.35506737      -1.34350147       1.36349758       0.00000000
Si       1.35304741       1.34105797       1.36954471       0.00000000
Si       1.37819917      -1.38277666      -1.30661405       0.00000000
Si      -1.36959805       1.34894233      -1.35692965       0.00000000
Si       2.73916222      -0.04197933      -2.65390880       0.00000000
Si       0.00327429      -2.69405651       2.70815937       0.00000000
Si      -2.70168023      -2.70374906       0.01481402       0.00000000
Si       0.04228884      -2.73398330      -2.67092178       0.00000000
Si      -2.71028135       2.69633711       0.01128412       0.00000000
Si       2.74559612      -0.04738761       2.66001380       0.00000000
