10
Lattice="16.2900001489832 0.0 0.0 0.0 16.2900001489832 0.0 0.0 0.0 28.93363569536356" Properties=species:S:1:pos:R:3:initial_magmoms:R:1 pbc="T T T"
Si       0.95263921       1.51013188      -1.46982869       0.00000000
Si       1.45851409      -1.22870584       1.35964941       0.00000000
Si      -1.17928198      -1.44759457      -1.46146687       0.00000000
Si      -1.31347900       1.45202545       1.34272323       0.00000000
Si      -0.62558488       1.58099338      -3.17471424       0.00000000
Si      -2.36709992       0.05334975      -2.79362933       0.00000000
Si       0.01694160      -2.56850948       2.64571479       0.00000000
Si      -2.57390147      -2.71112843      -0.11796243       0.00000000
Si      -2.70855461       0.16004925       2.68318096       0.00000000
Si       2.70547743       0.56567026      -2.63235324       0.00000000
