10
Lattice="16.2900001489832 0.0 0.0 0.0 16.2900001489832 0.0 0.0 0.0 28.93363569536356" Properties=species:S:1:pos:R:3:initial_magmoms:R:1 pbc="T T T"
Si      -1.28453297      -1.39639510      -1.37370248       0.00000000
Si       1.32796570      -1.35226549       1.37998686       0.00000000
Si       1.48728190       1.20223459      -1.36901523       0.00000000
Si      -1.36964757       1.36428751       1.35373537       0.00000000
Si       2.64815618       2.66118329       0.04502652       0.00000000
Si      -2.46359700      -0.02241504      -2.85834519       0.00000000
Si      -2.71887759      -2.66356163      -0.01177310       0.00000000
Si       0.17643699       2.73378783      -2.66174114       0.00000000
Si      -2.73477663       2.67089213      -0.03775550       0.00000000
Si      -0.04680280      -2.73165383       2.69112614       0.00000000
