10
Lattice="16.2900001489832 0.0 0.0 0.0 16.2900001489832 0.0 0.0 0.0 28.93363569536356" Properties=species:S:1:pos:R:3:initial_magmoms:R:1 pbc="T T T"
Si      -1.75283823       0.94446163       1.16252455       0.00000000
Si       1.24059591      -1.32419782       1.46647239       0.00000000
Si       1.35224757       1.91728415      -0.24000451       0.00000000
Si      -0.54530450      -0.59266279      -2.22569099       0.00000000
Si       3.24060068       0.55869814      -0.42931729       0.00000000
Si      -2.18180280       1.02064996      -2.53215606       0.00000000
Si      -3.33106231       1.01532313      -0.54236100       0.00000000
Si       3.15222743      -1.64794529       0.25869564       0.00000000
Si       1.28071818       2.70793559       2.02662758       0.00000000
Si      -2.70547743      -0.56567026       2.63235324       0.00000000
