10
Lattice="16.2900001489832 0.0 0.0 0.0 16.2900001489832 0.0 0.0 0.0 28.93363569536356" Properties=species:S:1:pos:R:3:initial_magmoms:R:1 pbc="T T T"
Si       1.30810330      -1.30694671       1.45599842       0.00000000
Si      -1.36853920       1.36158337       1.35721898       0.00000000
Si      -1.40810761      -1.37166688      -1.31628946       0.00000000
Si       1.38909718       1.37238364      -1.34836529       0.00000000
Si      -0.08791713       2.64178190      -2.65124980       0.00000000
Si       2.65421117      -2.69283476       0.15791978       0.00000000
Si      -0.07359822      -2.82302445      -2.57573012       0.00000000
Si       2.79427260      -0.02362050      -2.62522689       0.00000000
Si      -2.73607331      -0.01940139      -2.69627632       0.00000000
Si       2.71779104       2.72000648       0.02196063       0.00000000
