10
Lattice="16.2900001489832 0.0 0.0 0.0 16.2900001489832 0.0 0.0 0.0 28.93363569536356" Properties=species:S:1:pos:R:3:initial_magmoms:R:1 pbc="T T T"
Si      -0.35833964       1.38686545      -1.80728169       0.00000000
Si       1.05960062      -1.94410400      -0.68254447       0.00000000
Si       1.43782184       1.05886630       1.48843302       0.00000000
Si      -2.22908325      -0.48347091       0.62777309       0.00000000
H        2.49462583      -1.52837505      -0.23983091       0.00000000
Si      -1.88355606       2.81764875      -0.69351031       0.00000000
Si      -0.13601371      -3.42195888       0.72698653       0.00000000
Si      -1.77284922       0.04298931      -3.09338179       0.00000000
Si       2.87085967       2.30542598       0.14223775       0.00000000
Si      -2.43353905      -2.79366433       0.40278514       0.00000000
