10
Lattice="16.2900001489832 0.0 0.0 0.0 16.2900001489832 0.0 0.0 0.0 28.93363569536356" Properties=species:S:1:pos:R:3:initial_magmoms:R:1 pbc="T T T"
Si      -2.32854149      -0.17935290      -0.05187801       0.00000000
Si       0.93740806      -0.81539596      -2.03912691       0.00000000
Si       0.44572698       2.23920713       0.71862471       0.00000000
Si       0.57098080      -1.70994503       1.61313699       0.00000000
H       -0.86838733       0.61419817       2.33971845       0.00000000
Si       2.33642585       1.87243778       2.03250111       0.00000000
Si       3.26186076      -0.38486754      -1.62083334       0.00000000
Si       0.04331511      -3.06895458      -2.12309232       0.00000000
Si      -2.96538276      -1.34151409       1.87223770       0.00000000
Si      -3.19834605       1.83772379      -0.82608423       0.00000000
