10
Lattice="16.2900001489832 0.0 0.0 0.0 16.2900001489832 0.0 0.0 0.0 28.93363569536356" Properties=species:S:1:pos:R:3:initial_magmoms:R:1 pbc="T T T"
Si      -1.70735492       0.07822458       1.55622453       0.00000000
Si      -0.70069807      -0.63851914      -2.11499090       0.00000000
Si       1.04140342       2.06796013      -0.16758362       0.00000000
Si       1.56602287      -1.77903092       0.21677080       0.00000000
Si       1.46872270      -0.56967760      -2.90623904       0.00000000
Si       1.94473280       1.62575342      -2.27293962       0.00000000
Si      -1.28829466      -2.78273928      -1.59522707       0.00000000
Si       2.35796123       2.09612554       1.77403694       0.00000000
Si      -2.55945224       2.25848309       1.20572247       0.00000000
Si      -2.55984320      -2.12638259       1.58000798       0.00000000
