10
Lattice="16.2900001489832 0.0 0.0 0.0 16.2900001489832 0.0 0.0 0.0 28.93363569536356" Properties=species:S:1:pos:R:3:initial_magmoms:R:1 pbc="T T T"
Si      -1.39461949      -1.26353386       1.34350444       0.00000000
Si      -1.18781794       1.50094432      -1.33216245       0.00000000
Si       1.17928198       1.44759457       1.46146687       0.00000000
Si       1.33152832      -1.41100723      -1.37550504       0.00000000
Si       0.55369711       3.02858796      -1.71324737       0.00000000
Si       2.13192119       2.95772646      -0.00836182       0.00000000
H        0.47534220       0.36631323      -3.61621259       0.00000000
Si      -2.78313024      -2.39588435      -0.17420942       0.00000000
Si      -0.04206078      -2.59084307       2.69600724       0.00000000
Si       2.91411813      -2.41711022       0.02664788       0.00000000
