10
Lattice="16.2900001489832 0.0 0.0 0.0 16.2900001489832 0.0 0.0 0.0 28.93363569536356" Properties=species:S:1:pos:R:3:initial_magmoms:R:1 pbc="T T T"
Si       1.34583094      -1.31036761       1.40788178       0.00000000
Si      -1.35390003       1.34281729       1.37292995       0.00000000
Si       1.36879984       1.35944938      -1.34781555       0.00000000
Si      -1.36731289      -1.36974466      -1.34159482       0.00000000
Si       2.69008175      -2.67939551       0.07742641       0.00000000
Si      -0.02891801       2.70949943      -2.67448062       0.00000000
Si      -2.72318303       0.00193851      -2.67401768       0.00000000
Si      -0.02301777      -2.69641856       2.70358785       0.00000000
Si       0.00843822       2.70544322       2.70162037       0.00000000
Si       2.72158661       2.70181055       0.04001522       0.00000000
