10
Lattice="16.2900001489832 0.0 0.0 0.0 16.2900001489832 0.0 0.0 0.0 28.93363569536356" Properties=species:S:1:pos:R:3:initial_magmoms:R:1 pbc="T T T"
H       -0.23065011       1.69989410      -0.59201112       0.00000000
Si      -0.87115663      -1.16967088      -1.80916237       0.00000000
Si       2.34975107       0.04771341      -0.64076430       0.00000000
Si      -1.78095314       0.01529631       1.72233253       0.00000000
H        0.62687179       2.08831286       1.48999544       0.00000000
H        1.38888541      -0.29411595       2.64598098       0.00000000
H        0.65221903       2.16354008       2.27817661       0.00000000
Si       0.54190315       3.08167707      -1.10228472       0.00000000
H        0.72387874      -2.16450119       2.77820770       0.00000000
Si      -3.19147167       1.67453057       0.76049168       0.00000000
