10
Lattice="16.2900001489832 0.0 0.0 0.0 16.2900001489832 0.0 0.0 0.0 28.93363569536356" Properties=species:S:1:pos:R:3:initial_magmoms:R:1 pbc="T T T"
Si      -1.36096305      -1.34079733       1.34729475       0.00000000
Si      -1.40354511       1.32229189      -1.32553665       0.00000000
Si       1.34254329       1.37632582       1.35021704       0.00000000
Si       1.33608757      -1.34161183      -1.39280736       0.00000000
Si      -0.04580618       2.65282652      -2.64832172       0.00000000
Si       0.01110554      -2.70829397       2.65460321       0.00000000
Si      -2.69687338      -2.69200397      -0.01701298       0.00000000
Si      -2.73916222       0.04197933       2.65390880       0.00000000
Si       2.74467085       0.03173292       2.67080604       0.00000000
Si      -0.03141218       2.74975203       2.67016950       0.00000000
