10
Lattice="16.2900001489832 0.0 0.0 0.0 16.2900001489832 0.0 0.0 0.0 28.93363569536356" Properties=species:S:1:pos:R:3:initial_magmoms:R:1 pbc="T T T"
Si       0.09993915       2.25835440       0.43458321       0.00000000
Si      -0.96441688      -1.20468786       1.74605811       0.00000000
Si      -1.31655781      -0.02816541      -1.94162056       0.00000000
Si       1.90393759      -1.20760378      -0.66775938       0.00000000
H        1.35878149       1.15372949      -2.36980943       0.00000000
Si       1.36500427       2.41874574      -1.51638291       0.00000000
Si       1.03793365      -3.32828486      -0.20649936       0.00000000
Si      -2.35796123      -2.09612554      -1.77403694       0.00000000
Si      -2.09311841       3.02374005       0.70933701       0.00000000
Si      -0.11132586      -3.33361169       1.78329570       0.00000000
