10
Lattice="16.2900001489832 0.0 0.0 0.0 16.2900001489832 0.0 0.0 0.0 28.93363569536356" Properties=species:S:1:pos:R:3:initial_magmoms:R:1 pbc="T T T"
Si      -1.34159554       1.34563546       1.34364911       0.00000000
Si       1.29520162      -1.35928648       1.38155217       0.00000000
Si      -1.29997459      -1.27242820      -1.46381050       0.00000000
Si       1.39471723       1.35278677      -1.30861048       0.00000000
H       -2.29482119      -2.16761258      -0.73821278       0.00000000
Si      -2.71836119      -0.07205067       2.51320453       0.00000000
Si       2.65699676       0.03119535       2.64381096       0.00000000
Si      -2.68542119       2.64867257      -0.07299956       0.00000000
Si       0.02047653       2.71143794      -2.66073714       0.00000000
Si       2.79267618      -0.04243545      -2.57917322       0.00000000
