10
Lattice="16.2900001489832 0.0 0.0 0.0 16.2900001489832 0.0 0.0 0.0 28.93363569536356" Properties=species:S:1:pos:R:3:initial_magmoms:R:1 pbc="T T T"
Si      -1.34858069       1.32515893      -1.38166791       0.00000000
Si       1.34073217       1.36756180       1.35235813       0.00000000
Si      -1.37527838      -1.30453579       1.38059736       0.00000000
Si       1.35628912      -1.36936999      -1.35808699       0.00000000
Si      -2.62307691      -2.69312798      -0.04389233       0.00000000
Si       2.66838347      -0.02513547       2.66088181       0.00000000
Si      -3.05497776       2.28633410      -0.05940075       0.00000000
Si       0.02959893       2.69143382      -2.71241261       0.00000000
Si       2.72080469       2.68723100      -0.02314691       0.00000000
Si      -2.65267584      -0.05165559      -2.75633387       0.00000000
