10
Lattice="16.2900001489832 0.0 0.0 0.0 16.2900001489832 0.0 0.0 0.0 28.93363569536356" Properties=species:S:1:pos:R:3:initial_magmoms:R:1 pbc="T T T"
Si       1.69774382       0.91844650       1.34603353       0.00000000
Si       1.44866971      -1.39512448      -1.27349343       0.00000000
Si      -1.02469965      -1.80921629       1.17394205       0.00000000
Si      -1.86873995       1.65680705      -0.02286654       0.00000000
Si       0.25977663       1.25024122      -2.17619393       0.00000000
Si       0.35447040       2.30262948       2.64548651       0.00000000
Si      -2.38677824      -0.53729307       2.58431791       0.00000000
H        2.31471128       1.29831301      -2.66980176       0.00000000
Si      -2.50390334       1.68464666      -2.27352668       0.00000000
Si       1.56436129       3.13043141      -1.46966348       0.00000000
