10
Lattice="10.86 0.0 0.0 0.0 10.86 0.0 0.0 0.0 10.86" Properties=species:S:1:pos:R:3:initial_magmoms:R:1 pbc="T T T"
Si       1.16295396      -1.38796230      -1.32545214       0.00000000
Si       1.19237370       1.86146916       0.94989162       0.00000000
Si      -1.55204604       1.32703770      -1.32545214       0.00000000
Si      -1.55204604      -1.38796230       1.38954786       0.00000000
Si       2.15629644       0.55113414       2.37399600       0.00000000
Si       0.13079784       2.63381064      -2.59888488       0.00000000
Si       2.52045396      -2.74546230       0.03204786       0.00000000
Si       2.47105182      -0.04137660      -2.80972092       0.00000000
Si       0.00777576       2.66837802       2.74132464       0.00000000
Si      -0.19454604      -2.74546230      -2.68295214       0.00000000
