10
Lattice="10.86 0.0 0.0 0.0 10.86 0.0 0.0 0.0 10.86" Properties=species:S:1:pos:R:3:initial_magmoms:R:1 pbc="T T T"
Si       0.96636624       1.01235834       1.66718376       0.00000000
Si       0.96636624      -1.70264166      -1.04781624       0.00000000
Si      -1.74863376       1.01235834      -1.04781624       0.00000000
Si       2.32386624       2.36985834       0.30968376       0.00000000
Si       2.32386624      -0.34514166      -2.40531624       0.00000000
Si      -0.39113376       2.36985834      -2.40531624       0.00000000
Si      -0.54150132       2.20709952       3.01022910       0.00000000
Si       2.32386624      -0.34514166       3.02468376       0.00000000
Si       2.32386624      -3.06014166       0.30968376       0.00000000
Si      -0.39113376      -3.06014166      -2.40531624       0.00000000
