10
Lattice="10.86 0.0 0.0 0.0 10.86 0.0 0.0 0.0 10.86" Properties=species:S:1:pos:R:3:initial_magmoms:R:1 pbc="T T T"
Si       0.96392274      -1.31033502       1.42410438       0.00000000
Si      -1.18459794       0.80690886       1.79143302       0.00000000
Si      -1.19237370      -1.86146916      -0.94989162       0.00000000
Si       0.33227256       1.53337770      -1.95332304       0.00000000
Si      -2.74441974       2.18056854       0.43965624       0.00000000
Si      -2.74441974      -0.53443146      -2.27534376       0.00000000
Si      -1.06157586       0.77234148      -3.54877650       0.00000000
Si      -1.32715716       3.44882106      -1.00890486       0.00000000
Si      -0.02941974       2.18056854       3.15465624       0.00000000
Si      -0.02941974      -3.24943146      -2.27534376       0.00000000
