10
Lattice="16.28999089631971 0.0 0.0 0.0 16.28999089631971 0.0 0.0 0.0 34.376317263855086" Properties=species:S:1:pos:R:3:initial_magmoms:R:1 pbc="T T T"
Si       1.59306426       1.00185129       1.45264085       0.00000000
Si      -1.27627263       1.44669861      -1.40214201       0.00000000
Si      -1.71918144      -1.02836164       1.30217563       0.00000000
Si       1.44749682      -1.29407597      -1.39657305       0.00000000
Si      -0.33534594      -2.31294542       2.89912834       0.00000000
Si       2.65681755       2.64347604      -0.09811006       0.00000000
Si      -2.62653444       0.07943004      -2.78183628       0.00000000
Si       0.09045837      -2.63395621      -2.78097687       0.00000000
Si      -2.85961176       2.64916125       0.03740145       0.00000000
Si      -2.73961962      -2.80649726       0.06906206       0.00000000
