10
Lattice="16.28999089631971 0.0 0.0 0.0 16.28999089631971 0.0 0.0 0.0 34.376317263855086" Properties=species:S:1:pos:R:3:initial_magmoms:R:1 pbc="T T T"
Si       1.91557368       0.50904621       1.34177717       0.00000000
Si      -0.23684031      -2.35053297       0.52822679       0.00000000
Si       0.82865601      -0.88200576      -2.12751709       0.00000000
Si      -2.10663909       1.46012157       0.57068156       0.00000000
Si       1.58661342       2.65463469      -1.16377650       0.00000000
Si       3.34884933      -0.94118733      -0.01557248       0.00000000
Si      -2.00663478      -2.79972972       2.05195790       0.00000000
Si      -1.29057525       3.18410856       2.07107114       0.00000000
Si       2.96166861       2.68105707       0.96456563       0.00000000
Si      -0.76440825      -1.88385705      -3.58015794       0.00000000
