10
Lattice="16.28999089631971 0.0 0.0 0.0 16.28999089631971 0.0 0.0 0.0 34.376317263855086" Properties=species:S:1:pos:R:3:initial_magmoms:R:1 pbc="T T T"
Si      -1.63763370       1.71852984       0.46301488       0.00000000
Si      -0.81606384      -1.72398699      -1.50038958       0.00000000
Si       0.62724645      -1.10216511       2.18320675       0.00000000
Si       1.11185766       1.92769344      -1.92259975       0.00000000
Si      -2.16800352      -2.89259901       0.47246837       0.00000000
Si      -2.14374771       1.30787523       2.74660053       0.00000000
Si      -0.06410115       0.60549930       3.67826800       0.00000000
Si       2.67862986       2.73390183      -0.39329967       0.00000000
Si      -0.69098922      -3.11438736       2.36165432       0.00000000
Si       1.29057525      -3.18410856      -2.07107114       0.00000000
