10
Lattice="16.28999089631971 0.0 0.0 0.0 16.28999089631971 0.0 0.0 0.0 34.376317263855086" Properties=species:S:1:pos:R:3:initial_magmoms:R:1 pbc="T T T"
Si      -1.35632169      -1.35694071      -1.35734965       0.00000000
Si      -1.35738054       1.35697329       1.35738402       0.00000000
Si       1.35736425       1.35816246      -1.35683400       0.00000000
Si       1.35785295      -1.35780408       1.35755590       0.00000000
Si      -0.00096111       2.71290402       2.71487117       0.00000000
Si       2.71430496      -0.00172674       2.71408052       0.00000000
Si      -2.71455094       2.71453302      -0.00006875       0.00000000
Si      -0.00127062       2.71541268      -2.71418365       0.00000000
Si       2.71490769       2.71505430       0.00013751       0.00000000
Si      -2.71471221      -2.71536381      -0.00013751       0.00000000
