10
Lattice="16.28999089631971 0.0 0.0 0.0 16.28999089631971 0.0 0.0 0.0 34.376317263855086" Properties=species:S:1:pos:R:3:initial_magmoms:R:1 pbc="T T T"
Si      -1.26472302       0.43813584      -2.00314350       0.00000000
Si       0.97334379      -2.20507956       0.18243522       0.00000000
Si       1.81315845       1.63836675       0.04400171       0.00000000
Si      -1.29828042      -0.09138690       2.08506231       0.00000000
Si       2.54011599      -1.39887117       1.71173530       0.00000000
Si      -3.30313959       0.82723878      -0.77236753       0.00000000
Si       0.92326833       2.89193112       2.01431581       0.00000000
Si       0.12592170       1.19338911       3.47764770       0.00000000
Si       3.70061559       0.17537814       0.18649163       0.00000000
Si      -3.39340574       0.92393622       1.59066184       0.00000000
