10
Lattice="16.28999089631971 0.0 0.0 0.0 16.28999089631971 0.0 0.0 0.0 34.376317263855086" Properties=species:S:1:pos:R:3:initial_magmoms:R:1 pbc="T T T"
Si      -0.94871331       1.53147177       1.46972589       0.00000000
Si       2.17557837      -0.47931696       0.68979557       0.00000000
Si       0.47985453       1.38499209      -1.85975980       0.00000000
Si      -1.54821789      -1.78939134       0.19852334       0.00000000
Si       2.80743489      -2.30436711      -0.67112922       0.00000000
Si       2.01370464      -0.86470578       2.98541294       0.00000000
Si      -1.28648646      -2.44418418       2.49647831       0.00000000
Si      -1.86215877       3.25874934       0.15208091       0.00000000
Si      -1.21968117       2.93127147      -2.10713192       0.00000000
Si      -0.85687029      -3.49705575      -1.29653791       0.00000000
