10
Lattice="16.28999089631971 0.0 0.0 0.0 16.28999089631971 0.0 0.0 0.0 34.376317263855086" Properties=species:S:1:pos:R:3:initial_magmoms:R:1 pbc="T T T"
Si       1.58926869       0.73897956       1.51561830       0.00000000
Si      -0.58668435       1.91335824      -1.26511793       0.00000000
Si      -1.81754046      -1.17128358       1.01637076       0.00000000
Si       0.67424310      -1.38948813      -1.86969456       0.00000000
Si      -2.59478523       0.84997962      -1.88550768       0.00000000
Si      -2.71378205      -1.52203986      -1.17443316       0.00000000
Si       2.99419974       1.95027138       0.06782451       0.00000000
Si      -0.90321534      -3.10663332      -1.56893600       0.00000000
Si       2.90235672      -1.98268848      -1.45105954       0.00000000
Si      -2.72276599       0.17948322       2.74605051       0.00000000
