10
Lattice="16.28999089631971 0.0 0.0 0.0 16.28999089631971 0.0 0.0 0.0 34.376317263855086" Properties=species:S:1:pos:R:3:initial_magmoms:R:1 pbc="T T T"
Si      -1.35575154      -1.35785295      -1.35624960       0.00000000
Si       1.35710361       1.35726010      -1.35645586       0.00000000
Si      -1.35744570       1.35722262       1.35738402       0.00000000
Si       1.35765747      -1.35728280       1.35717776       0.00000000
Si       2.71248048      -0.00219915       2.71353050       0.00000000
Si      -0.00164529       2.71375992       2.71418365       0.00000000
Si      -0.00156384      -2.71399545      -2.71418365       0.00000000
Si       2.71461447      -2.71435383       0.00013751       0.00000000
Si      -2.71484416      -2.71487511      -0.00006875       0.00000000
Si       2.71546155      -0.00022806      -2.71476804       0.00000000
