10
Lattice="16.28999089631971 0.0 0.0 0.0 16.28999089631971 0.0 0.0 0.0 34.376317263855086" Properties=species:S:1:pos:R:3:initial_magmoms:R:1 pbc="T T T"
Si      -1.35695700       1.35707103       1.35704026       0.00000000
Si      -1.35754344      -1.35689184      -1.35697151       0.00000000
Si       1.35700587       1.35736425      -1.35704026       0.00000000
Si       1.35773892      -1.35775521       1.35704026       0.00000000
Si      -0.00213399       2.71215468       2.71339299       0.00000000
Si      -2.71461447       2.71435383      -0.00013751       0.00000000
Si       0.00084708       2.71412577      -2.71490555       0.00000000
Si      -2.71490769      -2.71505430      -0.00013751       0.00000000
Si       2.71518462       2.71490769      -0.00020626       0.00000000
Si      -2.71617831       0.00035838      -2.71432115       0.00000000
