10
Lattice="16.28999089631971 0.0 0.0 0.0 16.28999089631971 0.0 0.0 0.0 34.376317263855086" Properties=species:S:1:pos:R:3:initial_magmoms:R:1 pbc="T T T"
Si      -1.23046515      -1.37932317      -1.55394791       0.00000000
Si       0.29020635      -1.46308635       1.96037934       0.00000000
Si       1.71427815       1.25398791      -1.30327567       0.00000000
Si      -1.47064491       1.67485376       1.26931185       0.00000000
Si       3.38087547       1.34912498       0.72527195       0.00000000
Si      -2.78767512      -2.66331726      -0.08676587       0.00000000
Si      -2.41577442      -0.00491958      -3.04447149       0.00000000
Si      -1.52295210      -3.10145310       1.91637763       0.00000000
Si      -0.59968377      -0.20952198       3.93069344       0.00000000
Si       0.31219785       2.69372322      -3.02638953       0.00000000
