10
Lattice="16.28999089631971 0.0 0.0 0.0 16.28999089631971 0.0 0.0 0.0 34.376317263855086" Properties=species:S:1:pos:R:3:initial_magmoms:R:1 pbc="T T T"
Si       1.69953570      -1.54627938       0.24737212       0.00000000
Si      -1.42420212      -1.28477601      -1.39258539       0.00000000
Si      -0.64247760       0.32747787       2.25921283       0.00000000
Si       0.79734663       1.69854201      -1.46333189       0.00000000
Si      -1.31880582       2.74172103      -1.97041723       0.00000000
Si      -0.12592170      -1.19338911      -3.47764770       0.00000000
Si       1.21968117      -2.93127147       2.10713192       0.00000000
Si       3.78779967      -0.38450916       0.45607086       0.00000000
Si       0.27096786      -1.39979970       3.57685781       0.00000000
Si       1.68723675       0.44497764      -3.43364599       0.00000000
