10
Lattice="16.28999089631971 0.0 0.0 0.0 16.28999089631971 0.0 0.0 0.0 34.376317263855086" Properties=species:S:1:pos:R:3:initial_magmoms:R:1 pbc="T T T"
Si       1.18043856      -1.26565155       1.64088567       0.00000000
Si      -0.31389201       2.07307259       1.29461283       0.00000000
Si      -1.80245592      -1.48533849      -0.83892012       0.00000000
Si       2.02940820       0.10191792      -1.59138374       0.00000000
Si      -1.81050318       2.24530676      -2.29104532       0.00000000
Si       0.04346172      -0.80839125       3.65334516       0.00000000
Si      -2.62591542       2.42307953       1.29045329       0.00000000
Si       0.28341342       1.54961787       3.57256077       0.00000000
Si       1.18799712      -3.56838966       1.08048263       0.00000000
Si       2.85749406       2.48463944      -1.05576605       0.00000000
