10
Lattice="16.28999089631971 0.0 0.0 0.0 16.28999089631971 0.0 0.0 0.0 34.376317263855086" Properties=species:S:1:pos:R:3:initial_magmoms:R:1 pbc="T T T"
Si      -0.79734663      -1.69854201       1.46333189       0.00000000
Si      -2.11615245       1.04317902      -0.50708534       0.00000000
Si       1.80245592       1.48533849       0.83892012       0.00000000
Si       0.88989012      -1.25356437      -1.97031410       0.00000000
Si      -0.87096114       1.88437574      -2.66138159       0.00000000
Si      -0.92326833      -2.89193112      -2.01431581       0.00000000
Si      -2.22154875      -2.98331802       0.07074650       0.00000000
Si      -1.77784173       3.28144850       0.07160591       0.00000000
Si       0.90218907      -3.24482139       1.71070401       0.00000000
Si       2.98289448       0.21968694       2.47980578       0.00000000
