10
Lattice="16.28999089631971 0.0 0.0 0.0 16.28999089631971 0.0 0.0 0.0 34.376317263855086" Properties=species:S:1:pos:R:3:initial_magmoms:R:1 pbc="T T T"
Si      -1.58933385      -1.74197115       0.07191530       0.00000000
Si      -0.01896156       1.06170075      -2.17141567       0.00000000
Si       1.83943422      -0.69564816       1.50702421       0.00000000
Si      -1.17284742       1.53331254       1.57756446       0.00000000
Si       1.87598898      -2.90030418       0.69240817       0.00000000
Si      -1.90219959       2.43317444      -1.75480885       0.00000000
Si      -1.24240572       3.52185632       0.24744087       0.00000000
Si      -0.31628664      -3.72280257       0.27738266       0.00000000
Si       2.09227131       2.11765180      -2.28025115       0.00000000
Si      -3.30170607      -1.38693060      -1.55920749       0.00000000
