10
Lattice="16.28999089631971 0.0 0.0 0.0 16.28999089631971 0.0 0.0 0.0 34.376317263855086" Properties=species:S:1:pos:R:3:initial_magmoms:R:1 pbc="T T T"
Si      -2.24227615      -0.73803148      -0.29728656       0.00000000
Si       1.08084150       0.30887469      -2.10252549       0.00000000
Si       0.72441630      -1.47703548       1.72847657       0.00000000
Si       0.62131689       2.25209250       0.53829905       0.00000000
Si      -0.11503998       2.11581036      -3.08176981       0.00000000
Si       2.92680801       2.01710925       1.27546521       0.00000000
Si      -3.48978131       1.00455543      -1.14792900       0.00000000
Si      -2.25442849      -2.28166604      -2.09482519       0.00000000
Si      -3.04564193      -1.57940998       1.75539325       0.00000000
Si       0.11350872       3.71700333      -1.37055016       0.00000000
