10
Lattice="16.28999089631971 0.0 0.0 0.0 16.28999089631971 0.0 0.0 0.0 34.376317263855086" Properties=species:S:1:pos:R:3:initial_magmoms:R:1 pbc="T T T"
Si       1.32092352      -1.29640707       1.47916219       0.00000000
Si      -1.38201102       1.43356887       1.44563839       0.00000000
Si       1.87971939       0.92067822      -1.32288191       0.00000000
Si      -1.02881124      -1.83501963      -1.40878837       0.00000000
Si       0.58544631       0.06574644      -3.47735004       0.00000000
Si       2.54739762      -2.73875788       0.06722636       0.00000000
Si       2.72150514       2.75120181       0.03242032       0.00000000
Si       3.63229533      -0.89391375      -1.04222246       0.00000000
Si      -2.71583622      -2.77497055      -0.05401210       0.00000000
Si      -0.03142341      -2.64442575       2.84760165       0.00000000
