10
Lattice="16.28999089631971 0.0 0.0 0.0 16.28999089631971 0.0 0.0 0.0 34.376317263855086" Properties=species:S:1:pos:R:3:initial_magmoms:R:1 pbc="T T T"
Si      -1.35534429      -1.35615883      -1.35707464       0.00000000
Si      -1.35330804       1.35665889       1.35948098       0.00000000
Si       1.35984033       1.35845079      -1.35734965       0.00000000
Si       1.36254447      -1.35569845       1.36130292       0.00000000
Si      -0.00397476       2.71713453       2.70521142       0.00000000
Si      -2.71241532       0.00122338      -2.71511181       0.00000000
Si       2.70760977      -0.00359520       2.72033701       0.00000000
Si       0.00203625      -2.71332334      -2.71500868       0.00000000
Si      -2.71406061       2.71588020      -0.00037814       0.00000000
Si       0.00257382       2.71597794      -2.71497430       0.00000000
