10
Lattice="16.28999089631971 0.0 0.0 0.0 16.28999089631971 0.0 0.0 0.0 34.376317263855086" Properties=species:S:1:pos:R:3:initial_magmoms:R:1 pbc="T T T"
Si      -0.31773645       2.05954470       1.00282649       0.00000000
Si       0.08304642       0.52168725      -2.27492282       0.00000000
Si      -2.13434838      -1.05300189      -0.02557599       0.00000000
Si       2.06239545      -0.85229280       0.83799195       0.00000000
Si       0.32433390      -1.79471817      -2.83082256       0.00000000
Si       1.21290453       3.37118292      -0.29109882       0.00000000
Si       1.61515350       2.27533833      -2.34608184       0.00000000
Si      -2.52030735       2.64743451       0.66435708       0.00000000
Si      -2.08528290       1.40717907      -2.79043036       0.00000000
Si      -3.58845894       0.56775537       1.01379254       0.00000000
