10
Lattice="16.28999089631971 0.0 0.0 0.0 16.28999089631971 0.0 0.0 0.0 34.376317263855086" Properties=species:S:1:pos:R:3:initial_magmoms:R:1 pbc="T T T"
Si       1.41770241      -1.89315864      -0.02887612       0.00000000
Si      -1.82648367      -1.50241041      -0.40670644       0.00000000
Si      -0.52795890       1.83658347      -1.53205019       0.00000000
Si       1.29427308       0.85493178       2.15446814       0.00000000
Si      -1.61425755      -1.90076607       2.06856167       0.00000000
Si       2.51256960       2.26497789       0.35366375       0.00000000
Si      -0.58544631      -0.06574644       3.47735004       0.00000000
Si       1.27255851      -2.55312193      -2.19898549       0.00000000
Si       1.44329400       3.10417353      -1.53167205       0.00000000
Si       3.61525599      -1.26513027       0.19016989       0.00000000
