10
Lattice="16.28999089631971 0.0 0.0 0.0 16.28999089631971 0.0 0.0 0.0 34.376317263855086" Properties=species:S:1:pos:R:3:initial_magmoms:R:1 pbc="T T T"
Si       1.35760860      -1.35410625       1.36054665       0.00000000
Si      -1.35871632       1.36187658       1.35924034       0.00000000
Si      -1.36443411      -1.35946566      -1.36513932       0.00000000
Si       1.36963062       1.37437101      -1.36674814       0.00000000
Si      -2.71678104      -2.70748434       0.00330013       0.00000000
Si       2.71500543      -2.71076189       0.00089378       0.00000000
Si      -2.71210581       2.71611315       0.00103129       0.00000000
Si      -0.00076563      -2.71157964       2.71710563       0.00000000
Si       2.71467963       0.00327429       2.71710563       0.00000000
Si      -2.71513575       0.00278559       2.71738065       0.00000000
