10
Lattice="16.28999089631971 0.0 0.0 0.0 16.28999089631971 0.0 0.0 0.0 34.376317263855086" Properties=species:S:1:pos:R:3:initial_magmoms:R:1 pbc="T T T"
Si      -0.67321683      -1.62359172      -1.51169940       0.00000000
Si       1.39991373      -0.88387911       1.73579873       0.00000000
Si       1.30077279       1.66951323      -1.24473277       0.00000000
Si      -2.41663779       0.37916604       0.57205662       0.00000000
Si       1.55680272       2.76172515       0.93386756       0.00000000
Si      -1.97402220      -0.25392852      -2.91999477       0.00000000
Si       2.75059908       1.03742865       1.98420214       0.00000000
Si      -0.54120267       3.31354890       1.87694797       0.00000000
Si      -2.02945707      -3.24307836      -0.40808149       0.00000000
Si      -2.49799005       2.04744123       2.25305947       0.00000000
