10
Lattice="16.28999089631971 0.0 0.0 0.0 16.28999089631971 0.0 0.0 0.0 34.376317263855086" Properties=species:S:1:pos:R:3:initial_magmoms:R:1 pbc="T T T"
Si      -1.53210708      -1.75365108       0.07115902       0.00000000
Si       2.14775505      -0.92527200       0.22255240       0.00000000
Si      -0.40224897       1.09584459       2.05498302       0.00000000
Si      -0.16703766       1.16216118      -2.05663308       0.00000000
Si       0.61511040      -0.58782465      -3.39473198       0.00000000
Si      -1.61515350      -2.27533833       2.34608184       0.00000000
Si       2.60970687      -1.22526864      -2.24009959       0.00000000
Si      -3.70043640      -0.86815926      -0.44434853       0.00000000
Si       1.42527726       2.92469031      -2.09190320       0.00000000
Si      -1.93288995      -0.21579363       3.34890832       0.00000000
