10
Lattice="16.28999089631971 0.0 0.0 0.0 16.28999089631971 0.0 0.0 0.0 34.376317263855086" Properties=species:S:1:pos:R:3:initial_magmoms:R:1 pbc="T T T"
Si       1.77453486      -0.04266351       1.47196035       0.00000000
Si      -0.65529783       2.24324703      -0.01048478       0.00000000
Si       0.92012436      -0.23648193      -2.14226454       0.00000000
Si      -1.99954863      -1.31665554       0.38357116       0.00000000
Si      -2.16973026       1.47883878      -1.67997156       0.00000000
Si      -1.18949580      -0.28144233      -3.12855601       0.00000000
Si       1.54751742      -2.47453245      -1.97560806       0.00000000
Si      -1.67804919       2.18440755       2.22951168       0.00000000
Si       2.05718265      -2.33927658       1.70296933       0.00000000
Si      -3.57466131       0.26754696      -0.23217778       0.00000000
