10
Lattice="16.28999089631971 0.0 0.0 0.0 16.28999089631971 0.0 0.0 0.0 34.376317263855086" Properties=species:S:1:pos:R:3:initial_magmoms:R:1 pbc="T T T"
Si       1.35703845       1.35523026       1.35649024       0.00000000
Si      -1.35777150       1.35751086      -1.35714339       0.00000000
Si       1.35773892      -1.35830907      -1.35683400       0.00000000
Si      -1.35744570      -1.35829278       1.35817468       0.00000000
Si       2.71226871       0.00312768       2.71634936       0.00000000
Si       2.71453302       2.71492801       0.00037814       0.00000000
Si       2.71495656      -0.00180819      -2.71473367       0.00000000
Si       2.71440270      -2.71539639       0.00017188       0.00000000
Si      -0.00179190       2.71473699      -2.71507743       0.00000000
Si      -2.71515204       2.71467537       0.00079066       0.00000000
