10
Lattice="16.28999089631971 0.0 0.0 0.0 16.28999089631971 0.0 0.0 0.0 34.376317263855086" Properties=species:S:1:pos:R:3:initial_magmoms:R:1 pbc="T T T"
Si      -1.13777505      -1.61977986      -1.30482260       0.00000000
Si       1.63460376       1.23014817      -1.31850439       0.00000000
Si       1.46720772      -1.25216343       1.52716875       0.00000000
Si      -1.95121620       1.24793150       1.03142760       0.00000000
Si      -0.38204937      -0.77458950       3.45042164       0.00000000
Si      -2.32344270      -0.10795383      -2.72019951       0.00000000
Si       3.55234401       0.30833712       1.29739731       0.00000000
Si       0.39745971       2.60327299      -2.74605051       0.00000000
Si       2.99377620       2.39216762       0.13334581       0.00000000
Si      -3.61781352       1.15279443      -0.99712002       0.00000000
