10
Lattice="16.28999089631971 0.0 0.0 0.0 16.28999089631971 0.0 0.0 0.0 34.376317263855086" Properties=species:S:1:pos:R:3:initial_magmoms:R:1 pbc="T T T"
Si      -1.39229068       1.27622376       1.43951253       0.00000000
Si      -0.71376264      -2.00775879      -1.11676170       0.00000000
Si       1.34145544      -1.41988527       1.41229334       0.00000000
Si       0.77536165       1.83734910      -1.37559802       0.00000000
Si       2.58825946       2.64272670       0.06898643       0.00000000
Si      -2.70303295       2.64956850       0.07184654       0.00000000
Si      -2.70575338      -2.73103479       0.03232407       0.00000000
Si       0.22964990      -1.73012832      -3.43123419       0.00000000
Si      -0.02940997       2.64836304       2.79725750       0.00000000
Si       2.68515238      -0.07266969       2.79859818       0.00000000
