10
Lattice="16.28999089631971 0.0 0.0 0.0 16.28999089631971 0.0 0.0 0.0 34.376317263855086" Properties=species:S:1:pos:R:3:initial_magmoms:R:1 pbc="T T T"
Si      -1.35710361       1.35683808       1.35789967       0.00000000
Si       1.35837423       1.35747339      -1.35655899       0.00000000
Si       1.35739683      -1.35751890       1.35776216       0.00000000
Si      -1.35892809      -1.35770992      -1.35769341       0.00000000
Si       0.00076563       2.71157964      -2.71710563       0.00000000
Si      -2.71437012       2.71436523       0.00027501       0.00000000
Si      -0.00065160       2.71444668       2.71507743       0.00000000
Si      -2.71601541       0.00409531      -2.71380551       0.00000000
Si      -2.71490769      -2.71493605       0.00024063       0.00000000
Si       2.71487511      -0.00237834       2.71531807       0.00000000
