10
Lattice="16.28999089631971 0.0 0.0 0.0 16.28999089631971 0.0 0.0 0.0 34.376317263855086" Properties=species:S:1:pos:R:3:initial_magmoms:R:1 pbc="T T T"
Si       1.34779292       1.33151616       1.37501908       0.00000000
Si       1.35229059      -1.36005352      -1.35827781       0.00000000
Si      -1.36104579       1.35372594      -1.35759028       0.00000000
Si      -1.37753127      -1.35673036       1.37491595       0.00000000
Si      -0.08951355       2.55606967       2.79290546       0.00000000
Si       2.71089125      -2.71484395       0.00367827       0.00000000
Si       2.71335104       2.71365913       0.00323138       0.00000000
Si       2.71191752      -0.00216301      -2.71521494       0.00000000
Si      -0.00293832       2.71336591      -2.71528369       0.00000000
Si      -0.00266325      -2.71668472      -2.71500868       0.00000000
