10
Lattice="16.28999089631971 0.0 0.0 0.0 16.28999089631971 0.0 0.0 0.0 34.376317263855086" Properties=species:S:1:pos:R:3:initial_magmoms:R:1 pbc="T T T"
Si       1.35845568       1.35550719       1.35752153       0.00000000
Si      -1.35715248       1.35749457      -1.35731527       0.00000000
Si       1.35791811      -1.35757602      -1.35700588       0.00000000
Si      -1.35848011      -1.35751086       1.35693713       0.00000000
Si      -2.71085867       0.00076563       2.71287735       0.00000000
Si      -2.71407554       2.71454931      -0.00003438       0.00000000
Si      -2.71444859      -2.71497285       0.00013751       0.00000000
Si      -2.71551348       0.00047241      -2.71414927       0.00000000
Si       0.00158013      -2.71524978      -2.71490555       0.00000000
Si       2.71484253       0.00138465      -2.71545557       0.00000000
