10
Lattice="16.28999089631971 0.0 0.0 0.0 16.28999089631971 0.0 0.0 0.0 34.376317263855086" Properties=species:S:1:pos:R:3:initial_magmoms:R:1 pbc="T T T"
Si       1.32352992      -0.25787070      -1.91294000       0.00000000
Si       1.44746424       0.24874830       1.86708196       0.00000000
Si      -1.22963436       1.99990701       0.41059096       0.00000000
Si      -1.27337301      -2.02427685      -0.16579707       0.00000000
Si      -0.69377481      -1.43247744      -2.53260784       0.00000000
Si      -2.04623577       1.41942915       2.52174491       0.00000000
Si       2.72917677      -2.05162776      -1.24215454       0.00000000
Si       2.09787507       1.92181275      -2.40153087       0.00000000
Si      -0.05163930       0.78198516       3.67637730       0.00000000
Si       2.87429461       2.08161765       1.30922277       0.00000000
