10
Lattice="16.28999089631971 0.0 0.0 0.0 16.28999089631971 0.0 0.0 0.0 34.376317263855086" Properties=species:S:1:pos:R:3:initial_magmoms:R:1 pbc="T T T"
Si      -1.49713245       1.37406476       1.09866771       0.00000000
Si       0.63141669      -1.75500708       1.37546598       0.00000000
Si      -0.92725938      -0.84760617      -2.00207784       0.00000000
Si       1.99120719       1.29807191      -0.14554941       0.00000000
Si       0.52010712       3.17309978      -1.08612035       0.00000000
Si       2.46346407      -2.45059008      -0.02506035       0.00000000
Si       3.34748816      -0.46015992       0.92981115       0.00000000
Si       0.94442904      -1.19002101      -3.46293463       0.00000000
Si      -3.68750214       0.72254621       0.51206991       0.00000000
Si      -2.51831997      -2.56289334      -1.45803794       0.00000000
