10
Lattice="16.28999089631971 0.0 0.0 0.0 16.28999089631971 0.0 0.0 0.0 34.376317263855086" Properties=species:S:1:pos:R:3:initial_magmoms:R:1 pbc="T T T"
Si      -0.37810719      -0.23982138      -2.27083203       0.00000000
Si       2.20011111       0.59758236       0.53025499       0.00000000
Si      -0.92712906      -1.49612247       1.54923836       0.00000000
Si      -0.32192298       2.39244714      -0.18367277       0.00000000
Si       0.14002884       2.09245050      -2.64632476       0.00000000
Si      -2.02243608       0.19008801       2.77784862       0.00000000
Si       1.67031144       2.27709765       2.16952497       0.00000000
Si      -2.76247449      -2.54543940       0.48731895       0.00000000
Si       3.26328026       1.21505481      -1.54232871       0.00000000
Si       3.44761627      -1.14500455       1.38089744       0.00000000
