10
Lattice="16.28999089631971 0.0 0.0 0.0 16.28999089631971 0.0 0.0 0.0 34.376317263855086" Properties=species:S:1:pos:R:3:initial_magmoms:R:1 pbc="T T T"
Si      -1.35692306       1.35705474       1.35728089       0.00000000
Si       1.35715248      -1.35749457       1.35731527       0.00000000
Si      -1.35836100      -1.35702216      -1.35683400       0.00000000
Si       1.35839052       1.35842310      -1.35721214       0.00000000
Si      -0.00316841       2.71353933       2.71497430       0.00000000
Si      -2.71602260       0.00099369      -2.71263671       0.00000000
Si      -0.00132763      -2.71500543       2.71425240       0.00000000
Si      -2.71483343      -2.71487511      -0.00017188       0.00000000
Si      -2.71524068      -0.00151497       2.71466492       0.00000000
Si       2.71471221       2.71536381       0.00013751       0.00000000
