10
Lattice="16.28999089631971 0.0 0.0 0.0 16.28999089631971 0.0 0.0 0.0 34.376317263855086" Properties=species:S:1:pos:R:3:initial_magmoms:R:1 pbc="T T T"
Si       1.33348311      -1.31377221       1.44513306       0.00000000
Si       1.12392855       1.56734235      -1.45083407       0.00000000
Si      -0.84178575      -1.83052359      -1.35530223       0.00000000
Si      -1.39567833       1.36829484       1.44534963       0.00000000
Si       0.37651077      -0.42047748      -3.15610662       0.00000000
Si      -0.78351642       3.29404977      -1.07963732       0.00000000
Si       2.71788876      -2.63236626       0.04684463       0.00000000
Si       2.72060919       2.74823703       0.08636711       0.00000000
Si      -2.72150514      -2.75120181      -0.03242032       0.00000000
Si       2.67734295       0.03099987       2.81652200       0.00000000
