10
Lattice="16.28999089631971 0.0 0.0 0.0 16.28999089631971 0.0 0.0 0.0 34.376317263855086" Properties=species:S:1:pos:R:3:initial_magmoms:R:1 pbc="T T T"
Si      -1.99459647       0.63744399      -1.15463239       0.00000000
Si       1.49910354      -0.53323686      -1.80929534       0.00000000
Si      -0.51813603      -2.33227188       0.37549272       0.00000000
Si      -0.46195182       0.29999664       2.46265199       0.00000000
Si       2.01373722       1.21414257       0.96824389       0.00000000
Si      -0.14002884      -2.09245050       2.64632476       0.00000000
Si       3.12325142      -0.87739569       1.10399605       0.00000000
Si      -2.60970687       1.22526864       2.24009959       0.00000000
Si      -2.77674453       2.38742982       0.18346651       0.00000000
Si      -1.17799506       1.21792185      -3.26578634       0.00000000
