10
Lattice="16.28999089631971 0.0 0.0 0.0 16.28999089631971 0.0 0.0 0.0 34.376317263855086" Properties=species:S:1:pos:R:3:initial_magmoms:R:1 pbc="T T T"
Si      -0.27618066      -2.03644548       1.12118421       0.00000000
Si       2.00256228       1.23033483      -0.07146840       0.00000000
Si      -1.37886705       1.49366268       1.28467807       0.00000000
Si      -0.52745391      -0.26746551      -2.56265276       0.00000000
Si      -2.44814265       2.33285832      -0.60065773       0.00000000
Si       2.94111945      -0.06867864      -1.80393263       0.00000000
Si      -1.32194979       1.93999239      -2.64443406       0.00000000
Si       2.67895633      -2.33176689      -0.95002443       0.00000000
Si      -2.47373424      -2.66447385       0.90213820       0.00000000
Si      -0.84458763      -1.73097540       3.36614191       0.00000000
