10
Lattice="16.28999089631971 0.0 0.0 0.0 16.28999089631971 0.0 0.0 0.0 34.376317263855086" Properties=species:S:1:pos:R:3:initial_magmoms:R:1 pbc="T T T"
Si      -0.36890334      -0.44779581       2.27396028       0.00000000
Si       1.59749907       1.51068573      -0.82420704       0.00000000
Si      -2.20325508       0.45794448      -0.68106398       0.00000000
Si       1.09094523      -1.86439050      -0.99419803       0.00000000
Si       0.52111940      -0.69260193      -3.19170534       0.00000000
Si      -1.24856334      -2.64657114       2.10861010       0.00000000
Si      -3.14092377       1.22766327       1.40630155       0.00000000
Si       3.21475724      -1.82749365       0.15318096       0.00000000
Si       3.69262439       0.49536261      -0.32980657       0.00000000
Si      -3.21191559      -1.66651587      -1.05452850       0.00000000
