10
Lattice="16.28999089631971 0.0 0.0 0.0 16.28999089631971 0.0 0.0 0.0 34.376317263855086" Properties=species:S:1:pos:R:3:initial_magmoms:R:1 pbc="T T T"
Si      -1.34842104      -1.35132066      -1.36168450       0.00000000
Si       1.35630540      -1.35653346       1.35765903       0.00000000
Si      -1.35769005       1.35694071       1.35717776       0.00000000
Si       1.34454402       1.36370106      -1.39068438       0.00000000
Si       2.71563489      -2.71204065      -0.00268135       0.00000000
Si       2.71417531       2.71373481      -0.00550021       0.00000000
Si      -2.71326240       2.71538010      -0.00481269       0.00000000
Si      -0.00030951      -2.71393029       2.71493993       0.00000000
Si      -2.71508688      -2.71381626      -0.00560334       0.00000000
Si       2.71492954       0.00083079       2.71476804       0.00000000
