10
Lattice="16.28999089631971 0.0 0.0 0.0 16.28999089631971 0.0 0.0 0.0 34.376317263855086" Properties=species:S:1:pos:R:3:initial_magmoms:R:1 pbc="T T T"
Si      -1.44138807      -1.46147364      -1.25467238       0.00000000
Si      -1.34456031       1.30932504       1.53702101       0.00000000
Si       1.36184400      -1.39668831       1.53110828       0.00000000
Si       1.63159241       1.34609810      -1.34432587       0.00000000
Si       2.72687174      -2.67660990       0.03450697       0.00000000
Si      -2.83540482       2.58056962       0.14213928       0.00000000
Si       2.73922607       2.72248647       0.15706548       0.00000000
Si      -2.71412577      -2.84317515       0.14754667       0.00000000
Si      -0.15763833       0.74674989      -3.87353045       0.00000000
Si       0.01756062       2.67162420       2.92010821       0.00000000
