10
Lattice="16.28999089631971 0.0 0.0 0.0 16.28999089631971 0.0 0.0 0.0 34.376317263855086" Properties=species:S:1:pos:R:3:initial_magmoms:R:1 pbc="T T T"
Si      -1.35140211      -1.35433431       1.37995896       0.00000000
Si       1.36212093       1.36229916       1.38308721       0.00000000
Si      -1.49084451       1.27124458      -1.39488173       0.00000000
Si       1.34456031      -1.30932504      -1.53702101       0.00000000
Si       2.70640431      -2.70601335      -0.00591273       0.00000000
Si       2.70868780       2.72029058       0.01881761       0.00000000
Si      -2.71731861       2.71359539       0.01705410       0.00000000
Si      -2.72018565      -2.71844262       0.00166381       0.00000000
Si      -2.71257822       0.00377148       2.74160565       0.00000000
Si       0.00417024      -2.71277370       2.74194941       0.00000000
