10
Lattice="16.28999089631971 0.0 0.0 0.0 16.28999089631971 0.0 0.0 0.0 34.376317263855086" Properties=species:S:1:pos:R:3:initial_magmoms:R:1 pbc="T T T"
Si       0.62431425       0.76585806       2.16708425       0.00000000
Si       1.97643705      -0.78755634      -1.14380384       0.00000000
Si      -0.55856781       2.08383050      -1.16405151       0.00000000
Si      -2.08513629      -1.56050055       0.22977143       0.00000000
Si      -1.91774025       0.92181105      -2.61590170       0.00000000
Si       0.73371789      -1.96377579      -2.67905103       0.00000000
Si       1.48170486       2.82860279       1.43466203       0.00000000
Si      -0.56954727      -3.33190773      -1.08364525       0.00000000
Si       2.57946353      -2.68374492       0.15276844       0.00000000
Si      -3.55234401      -0.30833712      -1.29739731       0.00000000
