10
Lattice="16.28999089631971 0.0 0.0 0.0 16.28999089631971 0.0 0.0 0.0 34.376317263855086" Properties=species:S:1:pos:R:3:initial_magmoms:R:1 pbc="T T T"
Si      -1.46720772       1.25216343      -1.52716875       0.00000000
Si       2.08513629       1.56050055      -0.22977143       0.00000000
Si       1.51558902      -1.77140718      -1.31341669       0.00000000
Si      -1.84925709       0.47757393       1.92325290       0.00000000
Si       0.77357952      -2.07928818       2.42916944       0.00000000
Si       0.16739604       2.48231160      -2.84567313       0.00000000
Si      -2.60498277      -0.36761643      -2.83199135       0.00000000
Si       2.70945054       2.32635861       1.93731282       0.00000000
Si       2.81885418      -0.40327524      -2.90882246       0.00000000
Si      -0.75329847       0.95348628       3.94220951       0.00000000
