10
Lattice="16.28999089631971 0.0 0.0 0.0 16.28999089631971 0.0 0.0 0.0 34.376317263855086" Properties=species:S:1:pos:R:3:initial_magmoms:R:1 pbc="T T T"
Si       0.22854870       1.60119297       1.71121965       0.00000000
Si      -2.31157218      -0.49378248      -0.13874289       0.00000000
Si       1.19588148      -1.80693567       0.97924432       0.00000000
Si       0.91738764       0.25324434      -2.20410757       0.00000000
Si       1.14706035      -3.39188751      -0.72967212       0.00000000
Si       0.73635687       0.13628214       3.62006887       0.00000000
Si       1.84669956      -1.98923706      -2.52710762       0.00000000
Si       0.11503998      -2.11581036       3.08176981       0.00000000
Si      -3.42108638       1.59775578      -0.27449505       0.00000000
Si      -2.46461998      -2.02465152      -2.11146334       0.00000000
