10
Lattice="16.28999089631971 0.0 0.0 0.0 16.28999089631971 0.0 0.0 0.0 34.376317263855086" Properties=species:S:1:pos:R:3:initial_magmoms:R:1 pbc="T T T"
Si       0.85739061       2.06274473      -0.73242222       0.00000000
Si      -0.62431425      -0.76585806      -2.16708425       0.00000000
Si      -1.87168842       0.34241484       1.46085679       0.00000000
Si       1.85000384      -1.13603202       1.07209481       0.00000000
Si       2.23532099       2.75319638       1.12788760       0.00000000
Si      -1.18288206       1.31797244      -3.33113576       0.00000000
Si      -0.94442904       1.19002101       3.46293463       0.00000000
Si      -3.14515917       2.09009564       0.34393525       0.00000000
Si       1.86488313      -3.35290554       0.34871356       0.00000000
Si       1.35212280      -1.55341440      -3.31088809       0.00000000
