10
Lattice="16.28999089631971 0.0 0.0 0.0 16.28999089631971 0.0 0.0 0.0 34.376317263855086" Properties=species:S:1:pos:R:3:initial_magmoms:R:1 pbc="T T T"
Si      -0.93855717       1.29901347       1.73246423       0.00000000
Si       2.17551158       0.92048274      -0.22495875       0.00000000
Si      -1.35668889       0.12981501      -1.95453536       0.00000000
Si      -0.26216312      -2.26308825       0.85390820       0.00000000
Si       0.95679478       0.35135901       2.82800370       0.00000000
Si      -2.94111945       0.06867864       1.80393263       0.00000000
Si       1.67851997      -2.02887063       2.34529118       0.00000000
Si      -3.46857336      -0.19878687      -0.75872012       0.00000000
Si       2.84201693       1.47427758       1.98829293       0.00000000
Si       3.28420898      -0.30216321      -1.90757729       0.00000000
