10
Lattice="16.28999089631971 0.0 0.0 0.0 16.28999089631971 0.0 0.0 0.0 34.376317263855086" Properties=species:S:1:pos:R:3:initial_magmoms:R:1 pbc="T T T"
Si      -1.88522215      -1.12291857       0.83971077       0.00000000
Si       2.16106398      -0.81213795       0.44940185       0.00000000
Si      -0.66650535      -0.55379484      -2.21325167       0.00000000
Si      -0.32387778       2.30251005       0.65490359       0.00000000
Si       2.13025959      -0.95923665       2.83546336       0.00000000
Si      -1.16349696      -3.50314821       0.35699825       0.00000000
Si      -0.97994124       1.62381978      -3.21941266       0.00000000
Si      -2.84201693      -1.47427758      -1.98829293       0.00000000
Si      -3.78057410      -0.17526411      -0.25582870       0.00000000
Si      -1.88516677       2.97458658      -1.48973292       0.00000000
