10
Lattice="16.28999089631971 0.0 0.0 0.0 16.28999089631971 0.0 0.0 0.0 34.376317263855086" Properties=species:S:1:pos:R:3:initial_magmoms:R:1 pbc="T T T"
Si       1.88522215       1.12291857      -0.83971077       0.00000000
Si      -1.89535194       0.94765446      -1.09553947       0.00000000
Si      -0.94341254      -0.27763047       2.31447249       0.00000000
Si       0.72172519      -2.38022964      -0.48271252       0.00000000
Si      -0.95679478      -0.35135901      -2.82800370       0.00000000
Si       0.73158064      -2.13728058       2.01094693       0.00000000
Si       1.21871680       0.56912373      -3.05296244       0.00000000
Si      -1.21895789      -2.61444726      -1.97409550       0.00000000
Si       1.56134437       3.42542862      -0.18480718       0.00000000
Si      -0.22964990       1.73012832       3.43123419       0.00000000
