10
Lattice="16.28999089631971 0.0 0.0 0.0 16.28999089631971 0.0 0.0 0.0 34.376317263855086" Properties=species:S:1:pos:R:3:initial_magmoms:R:1 pbc="T T T"
Si       1.35375466       1.35648459       1.35769341       0.00000000
Si       1.35692306      -1.35705474      -1.35728089       0.00000000
Si      -1.35815471       1.35808101      -1.35704026       0.00000000
Si      -1.35831761      -1.35856971       1.35738402       0.00000000
Si       0.00321688      -2.71378368       2.71291172       0.00000000
Si      -0.00143794      -2.71407690      -2.71411489       0.00000000
Si       2.71407554      -2.71454931       0.00003438       0.00000000
Si      -2.71406915      -0.00035838      -2.71507743       0.00000000
Si       2.71425473       2.71528236       0.00024063       0.00000000
Si      -0.00153980       2.71547784      -2.71432115       0.00000000
