10
Lattice="16.28999089631971 0.0 0.0 0.0 16.28999089631971 0.0 0.0 0.0 34.376317263855086" Properties=species:S:1:pos:R:3:initial_magmoms:R:1 pbc="T T T"
Si       0.90522553      -1.35076680      -1.72967975       0.00000000
Si      -2.17342876      -0.91952163       0.39656542       0.00000000
Si      -0.60128345       2.18755152      -0.96277806       0.00000000
Si       1.56128899      -0.67207653       2.14463650       0.00000000
Si      -2.79228586       0.53172189       2.37317039       0.00000000
Si       1.21866142      -3.52838142      -0.72351875       0.00000000
Si       1.88516677      -2.97458658       1.48973292       0.00000000
Si       2.72276599      -0.17948322      -2.74605051       0.00000000
Si      -1.89540733      -3.14985069       1.23390422       0.00000000
Si      -1.48985359       1.62219078      -3.21277803       0.00000000
