10
Lattice="16.28999089631971 0.0 0.0 0.0 16.28999089631971 0.0 0.0 0.0 34.376317263855086" Properties=species:S:1:pos:R:3:initial_magmoms:R:1 pbc="T T T"
Si       1.61783435      -0.95169438      -1.41878016       0.00000000
Si      -1.55236974      -1.80770130      -0.45538333       0.00000000
Si      -0.70815678       2.22801588      -0.65043466       0.00000000
Si       0.88857014       0.56536074       2.24999997       0.00000000
Si      -2.23260756      -2.25026802       1.75085557       0.00000000
Si      -1.84094709       2.86138737       1.30602578       0.00000000
Si       1.39256482       3.10862070      -1.34803366       0.00000000
Si      -2.98986450      -0.64182600      -2.06653347       0.00000000
Si       1.49883752      -3.32371386      -0.70770564       0.00000000
Si       3.62593523       0.11168424      -0.79839041       0.00000000
