10
Lattice="16.28999089631971 0.0 0.0 0.0 16.28999089631971 0.0 0.0 0.0 34.376317263855086" Properties=species:S:1:pos:R:3:initial_magmoms:R:1 pbc="T T T"
Si       1.34687349       1.46251620      -1.29151694       0.00000000
Si      -1.36502774       1.27992159       1.49660131       0.00000000
Si       1.34991972      -1.41555213       1.51957845       0.00000000
Si      -0.98128028      -1.88950968      -1.35473502       0.00000000
Si       2.33670276      -0.00658116      -2.79170026       0.00000000
Si      -2.72687174       2.67660990      -0.03450697       0.00000000
Si       2.62373256      -2.80145646       0.15633327       0.00000000
Si      -2.66755985      -2.79461466       0.15919338       0.00000000
Si       2.80526832       2.68517844       0.10717510       0.00000000
Si       0.00460355       2.62995534       2.88178547       0.00000000
