10
Lattice="16.28999089631971 0.0 0.0 0.0 16.28999089631971 0.0 0.0 0.0 34.376317263855086" Properties=species:S:1:pos:R:3:initial_magmoms:R:1 pbc="T T T"
Si       1.34851878       1.35635427       1.36673439       0.00000000
Si      -1.35860066       1.35479043      -1.36195607       0.00000000
Si       1.35721764      -1.36104579      -1.36140605       0.00000000
Si      -1.35204394      -1.37859012       1.37529409       0.00000000
Si       2.53382805      -0.01804932       2.85725796       0.00000000
Si      -0.11062539       2.54257578       2.85045144       0.00000000
Si      -2.71089125       2.71484395      -0.00367827       0.00000000
Si      -2.71137995      -2.71549413      -0.00175319       0.00000000
Si       0.00102627       2.71268094      -2.71889320       0.00000000
Si      -2.71355449      -0.00184077      -2.71868695       0.00000000
