10
Lattice="16.28999089631971 0.0 0.0 0.0 16.28999089631971 0.0 0.0 0.0 34.376317263855086" Properties=species:S:1:pos:R:3:initial_magmoms:R:1 pbc="T T T"
Si       1.35436689      -1.35928484      -1.36164669       0.00000000
Si      -1.36032088       1.35716877      -1.36171544       0.00000000
Si       1.35026181       1.36726857       1.37969426       0.00000000
Si      -1.36555812      -1.38214297       1.37178771       0.00000000
Si      -0.23307732       2.56973121       2.81923773       0.00000000
Si       2.62653444      -0.07943004       2.78183628       0.00000000
Si      -2.71335104      -2.71365913      -0.00323138       0.00000000
Si      -2.71269944       2.71544526      -0.00577522       0.00000000
Si       2.71386513       2.71645524      -0.00336888       0.00000000
Si       2.71699281      -2.71338625       0.00085941       0.00000000
