10
Lattice="16.28999089631971 0.0 0.0 0.0 16.28999089631971 0.0 0.0 0.0 34.376317263855086" Properties=species:S:1:pos:R:3:initial_magmoms:R:1 pbc="T T T"
Si       0.33831072       2.23826948       0.57869125       0.00000000
Si       2.11615245      -1.04317902       0.50708534       0.00000000
Si      -2.21540090      -0.79430040       0.80681262       0.00000000
Si       1.24519131       0.84119672      -2.15429625       0.00000000
Si       2.10810519       2.68746623      -0.94503987       0.00000000
Si       1.31880582      -2.74172103       1.97041723       0.00000000
Si      -1.83008376       3.09492800       0.86260541       0.00000000
Si      -2.20052162      -3.01117392       0.08343137       0.00000000
Si       3.00604257      -2.29674339      -1.46322876       0.00000000
Si      -0.10539630      -4.02649704       0.57783184       0.00000000
