10
Lattice="16.28999089631971 0.0 0.0 0.0 16.28999089631971 0.0 0.0 0.0 34.376317263855086" Properties=species:S:1:pos:R:3:initial_magmoms:R:1 pbc="T T T"
Si      -0.45109779       2.27439351      -0.47844985       0.00000000
Si       1.81271373      -0.76686804       1.32067009       0.00000000
Si      -2.10072160      -0.88060482       0.69759900       0.00000000
Si       0.60448443      -0.84743838      -2.15608382       0.00000000
Si      -2.13611977       1.59413940      -2.05584243       0.00000000
Si      -0.30407240       0.89855640      -3.45636875       0.00000000
Si      -1.39256482      -3.10862070       1.34803366       0.00000000
Si      -3.52880074      -0.01296684      -1.06535704       0.00000000
Si       2.23337040      -2.99693646       0.54964324       0.00000000
Si       1.12824051      -0.74108097       3.54045327       0.00000000
