10
Lattice="16.28999089631971 0.0 0.0 0.0 16.28999089631971 0.0 0.0 0.0 34.376317263855086" Properties=species:S:1:pos:R:3:initial_magmoms:R:1 pbc="T T T"
Si      -0.68447322       0.02578707       2.21978318       0.00000000
Si       1.93984578       1.29106395      -0.37346452       0.00000000
Si      -1.81271373       0.76686804      -1.32067009       0.00000000
Si       0.42065667      -2.23006842      -0.77102685       0.00000000
Si       2.01935727      -1.55725884      -2.40235590       0.00000000
Si       3.40710237      -0.47021085      -0.84857987       0.00000000
Si      -1.20822930      -0.08057034      -3.47675392       0.00000000
Si      -2.31670841      -1.77639192       2.27736354       0.00000000
Si      -1.15781175       2.38210299       2.69947057       0.00000000
Si       1.10591181       0.17001873      -3.72000088       0.00000000
