10
Lattice="16.28999089631971 0.0 0.0 0.0 16.28999089631971 0.0 0.0 0.0 34.376317263855086" Properties=species:S:1:pos:R:3:initial_magmoms:R:1 pbc="T T T"
Si      -1.62984382      -0.74904678       1.62125678       0.00000000
Si      -1.89721322       1.36141461      -0.64837208       0.00000000
Si       0.47333853      -2.35631592      -0.47968740       0.00000000
Si       1.87284501       1.46378912      -0.67528875       0.00000000
Si       0.00232947      -0.08382834       3.48548551       0.00000000
Si      -1.09384744       2.20279311      -2.70105189       0.00000000
Si       2.18571075      -2.71135647       1.15143539       0.00000000
Si       2.60219718       0.56392722       2.65708455       0.00000000
Si       1.15781175      -2.38210299      -2.69947057       0.00000000
Si      -1.77662650       3.23199206       0.89601921       0.00000000
