10
Lattice="16.28999089631971 0.0 0.0 0.0 16.28999089631971 0.0 0.0 0.0 34.376317263855086" Properties=species:S:1:pos:R:3:initial_magmoms:R:1 pbc="T T T"
Si      -0.52175241       1.72289556      -1.43699962       0.00000000
Si       0.98982927      -1.46909736      -1.50018332       0.00000000
Si       1.45839483       1.22266224       1.39869204       0.00000000
Si      -1.34687349      -1.46251620       1.29151694       0.00000000
Si      -2.44215282       2.56019180      -0.08731589       0.00000000
Si       2.33603487      -2.76188805       0.02464783       0.00000000
Si       3.08221461       2.11861224      -0.07311847       0.00000000
Si       0.02474451       2.53638087       2.79842084       0.00000000
Si       2.07811530       2.37065112      -2.26540057       0.00000000
Si      -2.71190123      -0.18259461       2.78811825       0.00000000
