10
Lattice="16.28999089631971 0.0 0.0 0.0 16.28999089631971 0.0 0.0 0.0 34.48637585096406" Properties=species:S:1:pos:R:3:initial_magmoms:R:1 pbc="T T T"
Si      -1.39908620       1.35303613      -1.29104303       0.00000000
Si       1.33731126       1.36867453       1.37664861       0.00000000
Si      -1.37971250      -1.34648307       1.37330343       0.00000000
Si       1.34333856      -1.36564011      -1.62131579       0.00000000
Si       2.67898824      -2.70101286      -0.00651793       0.00000000
Si       2.67520896       2.72356433      -0.00600408       0.00000000
Si       2.69267184       0.01173038       2.73517118       0.00000000
Si      -2.72190108      -2.71707480      -0.00005863       0.00000000
Si      -0.02010186      -2.70467811       2.73468837       0.00000000
Si      -2.73467465       2.71440935       0.03362768       0.00000000
