10
Lattice="16.28999089631971 0.0 0.0 0.0 16.28999089631971 0.0 0.0 0.0 34.48637585096406" Properties=species:S:1:pos:R:3:initial_magmoms:R:1 pbc="T T T"
Si      -1.33789770      -1.35488980       1.38265269       0.00000000
Si       1.37358909       1.35959598       1.37799703       0.00000000
Si       1.40493105      -1.33628173      -1.40172712       0.00000000
Si      -1.33304328       1.42672707      -1.51298023       0.00000000
Si       0.64267308       2.09096811      -2.78090500       0.00000000
Si       2.52104040       0.23022657      -2.75728182       0.00000000
Si      -2.67520896      -2.72356433       0.00600408       0.00000000
Si      -2.68477119       2.73608469       0.00237956       0.00000000
Si      -2.69834076       0.00187335       2.74055450       0.00000000
Si       2.73758337      -2.70548297       0.01988486       0.00000000
