10
Lattice="16.28999089631971 0.0 0.0 0.0 16.28999089631971 0.0 0.0 0.0 34.48637585096406" Properties=species:S:1:pos:R:3:initial_magmoms:R:1 pbc="T T T"
Si      -1.35536058       1.35694415      -1.35852256       0.00000000
Si       1.35733167       1.35716407       1.35679824       0.00000000
Si      -1.35775521      -1.35744782       1.35645338       0.00000000
Si       1.35527913      -1.35554189      -1.36169531       0.00000000
Si      -2.69267184      -0.01173038      -2.73517118       0.00000000
Si      -0.00004887      -2.71477949       2.71411378       0.00000000
Si       2.71485882      -0.00029287       2.71404481       0.00000000
Si      -2.71277370      -2.71640849      -0.00048281       0.00000000
Si      -0.00016290       2.71497792       2.71421724       0.00000000
Si      -2.71476108      -0.00039166       2.71473454       0.00000000
