10
Lattice="16.28999089631971 0.0 0.0 0.0 16.28999089631971 0.0 0.0 0.0 34.48637585096406" Properties=species:S:1:pos:R:3:initial_magmoms:R:1 pbc="T T T"
Si       1.35415512      -1.35900425       1.35810873       0.00000000
Si       1.35615879       1.35729746      -1.35872948       0.00000000
Si      -1.35843939      -1.35807212      -1.35821219       0.00000000
Si      -1.35904212       1.35969209       1.36141942       0.00000000
Si      -0.01420488      -2.68740270       2.72266641       0.00000000
Si       2.71381626       2.71415672      -0.00168983       0.00000000
Si       2.71365336      -0.00051639      -2.71614848       0.00000000
Si      -2.71634447       2.71384721      -0.00179329       0.00000000
Si      -0.00123804       2.71458026      -2.71632091       0.00000000
Si       2.71454931      -2.71644777      -0.00210367       0.00000000
