10
Lattice="16.28999089631971 0.0 0.0 0.0 16.28999089631971 0.0 0.0 0.0 34.48637585096406" Properties=species:S:1:pos:R:3:initial_magmoms:R:1 pbc="T T T"
Si       2.08683045      -1.03928897       0.00369004       0.00000000
Si       0.08145000       0.68712849      -2.25572062       0.00000000
Si      -2.02196367      -1.19938872       0.44508142       0.00000000
Si       0.59667012       1.62401526       1.66565840       0.00000000
Si       1.09752246       2.81714373      -2.00190075       0.00000000
Si      -2.79580383      -0.18547794       2.46995011       0.00000000
Si      -3.51354123      -0.29496303      -1.29027399       0.00000000
Si       3.59590347       0.48123918      -1.07131986       0.00000000
Si      -2.20310847       0.80594775      -3.00417885       0.00000000
Si       2.40085278      -2.12022495       2.09404840       0.00000000
