10
Lattice="16.28999089631971 0.0 0.0 0.0 16.28999089631971 0.0 0.0 0.0 34.48637585096406" Properties=species:S:1:pos:R:3:initial_magmoms:R:1 pbc="T T T"
Si      -0.16780329       2.24894853      -0.62875596       0.00000000
Si       0.77384016      -1.01391078      -2.02486869       0.00000000
Si       1.22290659       0.07675848       2.05987238       0.00000000
Si      -1.82744478      -1.54173121       0.26306222       0.00000000
Si      -0.24136893      -2.98184282       1.26506443       0.00000000
Si       1.02508083      -3.10756904      -0.86867781       0.00000000
Si      -1.18099242       1.99286973      -2.73077071       0.00000000
Si       2.79580383       0.18547794      -2.46995011       0.00000000
Si       3.40457742       0.83523717       1.36493703       0.00000000
Si      -0.71773740      -0.10948509      -3.76022409       0.00000000
