10
Lattice="16.28999089631971 0.0 0.0 0.0 16.28999089631971 0.0 0.0 0.0 34.48637585096406" Properties=species:S:1:pos:R:3:initial_magmoms:R:1 pbc="T T T"
Si       1.35676152      -1.35423657       1.35997099       0.00000000
Si      -1.35765747      -1.35685926      -1.35703965       0.00000000
Si       1.35728280       1.35764118      -1.35714311       0.00000000
Si      -1.35809730       1.35689184       1.36272990       0.00000000
Si       2.69744481       0.00267156       2.73032239       0.00000000
Si      -2.71381626      -2.71415672       0.00168983       0.00000000
Si       2.71381626       2.71456560       0.00044832       0.00000000
Si      -0.00016290      -2.71467311      -2.71445865       0.00000000
Si       2.71510317       0.00040725      -2.71449313       0.00000000
Si      -0.00013032       2.71528236      -2.71438967       0.00000000
