10
Lattice="16.28999089631971 0.0 0.0 0.0 16.28999089631971 0.0 0.0 0.0 34.48637585096406" Properties=species:S:1:pos:R:3:initial_magmoms:R:1 pbc="T T T"
Si       1.15566147      -1.63867626       1.30372368       0.00000000
Si      -1.11796641      -0.86524335      -1.94661906       0.00000000
Si       2.21835591       0.54846801      -1.06969900       0.00000000
Si      -2.16850851      -0.13857903       1.32341541       0.00000000
Si       0.14068044       2.81776275      -0.34048418       0.00000000
Si       0.63975717      -2.86233219      -1.58364975       0.00000000
Si      -1.22013729      -2.13767154       2.31403711       0.00000000
Si      -2.27651121       2.78070300      -0.43625290       0.00000000
Si      -2.30179329       2.14128792       1.81219109       0.00000000
Si      -2.72468169       1.15268040      -2.14326048       0.00000000
