10
Lattice="16.28999089631971 0.0 0.0 0.0 16.28999089631971 0.0 0.0 0.0 34.48637585096406" Properties=species:S:1:pos:R:3:initial_magmoms:R:1 pbc="T T T"
Si      -0.89695251      -1.57917445      -1.47029297       0.00000000
Si       1.72981718      -0.87883638       1.41918413       0.00000000
Si      -1.85206779      -0.65443609       1.46225764       0.00000000
Si       0.80819414       2.23508737      -1.04924857       0.00000000
Si      -0.92363553       0.93547117       3.01883557       0.00000000
Si      -2.35977822       0.15074929      -2.58647963       0.00000000
Si       0.98468000       2.44983844       2.49764268       0.00000000
Si       2.95557452       1.11195703       1.96110335       0.00000000
Si       2.90453795       0.94996927      -2.39673549       0.00000000
Si      -1.54610901      -3.58369153      -0.17484602       0.00000000
