10
Lattice="16.28999089631971 0.0 0.0 0.0 16.28999089631971 0.0 0.0 0.0 34.48637585096406" Properties=species:S:1:pos:R:3:initial_magmoms:R:1 pbc="T T T"
Si      -0.33425451       0.95350257       2.09191024       0.00000000
Si      -1.13376771      -2.05688943       0.25685467       0.00000000
Si      -0.96462864       1.41897303      -1.63627599       0.00000000
Si       1.28342394      -2.01982968       0.35262339       0.00000000
Si       0.27150543      -1.01574666       3.29714078       0.00000000
Si       1.23808887       2.91283119       1.71869847       0.00000000
Si      -3.25878192       1.20687723      -1.22026661       0.00000000
Si       2.39961474      -1.62763164       2.39321788       0.00000000
Si       2.75706621      -2.22031071      -1.42070153       0.00000000
Si       1.71792711       3.37132953      -0.59002773       0.00000000
