10
Lattice="16.28999089631971 0.0 0.0 0.0 16.28999089631971 0.0 0.0 0.0 34.48637585096406" Properties=species:S:1:pos:R:3:initial_magmoms:R:1 pbc="T T T"
Si      -2.19331818      -0.10446777       0.75283801       0.00000000
Si       0.13328478      -2.27986695      -0.48877568       0.00000000
Si       0.02528208       0.63941508      -2.24844399       0.00000000
Si       1.43055522       1.68055785       0.79184212       0.00000000
Si       2.44247373       0.67647483      -2.15267527       0.00000000
Si       1.17411804       1.31732343       3.06580091       0.00000000
Si       2.30179329      -2.14128792      -1.81219109       0.00000000
Si       3.55866453       1.06867287      -0.11208078       0.00000000
Si      -3.44647856       1.17491625      -0.87716146       0.00000000
Si       0.82479528       3.64980708      -0.41338842       0.00000000
