10
Lattice="16.28999089631971 0.0 0.0 0.0 16.28999089631971 0.0 0.0 0.0 34.48637585096406" Properties=species:S:1:pos:R:3:initial_magmoms:R:1 pbc="T T T"
Si       0.80275491      -2.13247244       0.56961179       0.00000000
Si      -1.06091394      -0.74777616      -2.00731511       0.00000000
Si      -2.15509274       0.33606270       0.98548323       0.00000000
Si       1.96400385       1.16963177       0.71348903       0.00000000
Si      -2.89408859      -1.29130571      -0.58554450       0.00000000
Si       0.54392310      -1.97305850       2.96710598       0.00000000
Si       2.78428680      -2.66673557      -0.66651856       0.00000000
Si       1.50074883       3.27198659       1.74294241       0.00000000
Si      -2.44357235      -3.09170909       0.88916273       0.00000000
Si      -0.57663994      -3.99889919      -0.12722031       0.00000000
