10
Lattice="16.28999089631971 0.0 0.0 0.0 16.28999089631971 0.0 0.0 0.0 34.48637585096406" Properties=species:S:1:pos:R:3:initial_magmoms:R:1 pbc="T T T"
Si      -1.35501849      -1.35896067      -1.35693619       0.00000000
Si       1.35775521       1.35744782      -1.35645338       0.00000000
Si      -1.35700587       1.35705616       1.35828116       0.00000000
Si       1.35770634      -1.35733167       1.35766040       0.00000000
Si      -0.00099369      -2.71552671      -2.71197563       0.00000000
Si       0.00239463       2.71439197      -2.71497594       0.00000000
Si       2.71508688       2.71461188       0.00034486       0.00000000
Si      -2.71506896       2.71476338       0.00044832       0.00000000
Si      -2.71476922      -0.00042354       2.71535529       0.00000000
Si       2.71598283      -0.00131949       2.71438967       0.00000000
