10
Lattice="16.28999089631971 0.0 0.0 0.0 16.28999089631971 0.0 0.0 0.0 34.48637585096406" Properties=species:S:1:pos:R:3:initial_magmoms:R:1 pbc="T T T"
Si       1.92557574       1.23093756       0.59120027       0.00000000
Si      -1.28770821       0.13929579       2.01172937       0.00000000
Si       0.05866029      -2.30123943      -0.68024414       0.00000000
Si      -0.78721425       1.29539709      -1.89475152       0.00000000
Si      -3.01990536       1.49284818       1.16870944       0.00000000
Si       1.98322605      -2.23884873      -1.95737881       0.00000000
Si      -2.23712199       2.80334449      -0.73187028       0.00000000
Si       2.70754461       2.01974823      -1.47149999       0.00000000
Si      -0.74248191      -3.46957452       1.12432545       0.00000000
Si       1.22406318       2.55392991       2.52771482       0.00000000
