10
Lattice="16.28999089631971 0.0 0.0 0.0 16.28999089631971 0.0 0.0 0.0 34.48637585096406" Properties=species:S:1:pos:R:3:initial_magmoms:R:1 pbc="T T T"
Si       2.30281956      -0.30167451       0.36490055       0.00000000
Si      -0.37973619      -2.25403101      -0.68134771       0.00000000
Si      -0.25124067       2.09365826      -1.15619088       0.00000000
Si      -1.26644976       0.12572622       2.13374224       0.00000000
Si      -3.16289898      -0.14460633      -0.63792934       0.00000000
Si       1.82298132      -0.76017285       2.67362675       0.00000000
Si      -1.02508083       3.10756904       0.86867781       0.00000000
Si      -2.85252561       1.56583782       1.13174003       0.00000000
Si      -2.67388947      -2.46612681      -0.26533832       0.00000000
Si       0.58489245      -3.67300404       0.95492828       0.00000000
