10
Lattice="16.28999089631971 0.0 0.0 0.0 16.28999089631971 0.0 0.0 0.0 34.48637585096406" Properties=species:S:1:pos:R:3:initial_magmoms:R:1 pbc="T T T"
Si      -2.30281956       0.30167451      -0.36490055       0.00000000
Si       1.86875622       1.47449654       0.12787555       0.00000000
Si      -0.47983824      -0.45849834       2.30872621       0.00000000
Si       0.84085722      -1.29033090      -1.89137185       0.00000000
Si      -2.68255575      -1.95235650      -1.04624826       0.00000000
Si       1.55473389       2.55543252      -1.96248280       0.00000000
Si       1.63074303       0.54739287      -3.21613224       0.00000000
Si       3.71299599       0.01783755      -0.18819226       0.00000000
Si       2.94252786      -2.02018806      -1.21295549       0.00000000
Si      -2.55406023       2.39533277      -1.52109143       0.00000000
