10
Lattice="16.28999089631971 0.0 0.0 0.0 16.28999089631971 0.0 0.0 0.0 34.48637585096406" Properties=species:S:1:pos:R:3:initial_magmoms:R:1 pbc="T T T"
Si       0.47983824       0.45849834      -2.30872621       0.00000000
Si       1.73185506      -0.10085139       1.67600432       0.00000000
Si      -1.51221699       1.64058335       1.10173687       0.00000000
Si      -1.57234338      -1.95932862       0.37321177       0.00000000
Si      -3.08943108       0.88589907      -0.53988452       0.00000000
Si      -1.82298132       0.76017285      -2.67362675       0.00000000
Si      -1.23808887      -2.91283119      -1.71869847       0.00000000
Si       1.79383851       2.55184057       1.98969257       0.00000000
Si       0.50285601      -0.61216191       3.63700420       0.00000000
Si       2.34859446       1.93299488      -2.18085065       0.00000000
