10
Lattice="16.28999089631971 0.0 0.0 0.0 16.28999089631971 0.0 0.0 0.0 34.48637585096406" Properties=species:S:1:pos:R:3:initial_magmoms:R:1 pbc="T T T"
Si       1.35723393      -1.35632416      -1.35683273       0.00000000
Si       1.35715248       1.35667827       1.35755694       0.00000000
Si      -1.35663120      -1.35847444       1.35679824       0.00000000
Si      -1.35752715       1.35745693      -1.35724657       0.00000000
Si       2.71495656      -0.00064081      -2.71211357       0.00000000
Si      -2.71485882       0.00029287      -2.71404481       0.00000000
Si       0.00159642       2.71444000      -2.71452762       0.00000000
Si       0.00009774      -2.71543144       2.71369995       0.00000000
Si       0.00229689      -2.71342777      -2.71573464       0.00000000
Si      -2.71490769      -2.71448662       0.00006897       0.00000000
