10
Lattice="16.28999089631971 0.0 0.0 0.0 16.28999089631971 0.0 0.0 0.0 34.48637585096406" Properties=species:S:1:pos:R:3:initial_magmoms:R:1 pbc="T T T"
Si      -1.35681039       1.35631971      -1.35893640       0.00000000
Si       1.35850455      -1.35782302      -1.35797078       0.00000000
Si      -1.36699164      -1.34314573       1.36707519       0.00000000
Si       1.36140417       1.35975364       1.38418044       0.00000000
Si      -2.71386513      -2.71579000      -0.00279340       0.00000000
Si      -2.71396287      -0.00035856      -2.71649334       0.00000000
Si       0.00078192       2.71492852      -2.71642437       0.00000000
Si       0.00104256      -2.71541533      -2.71628643       0.00000000
Si      -2.71456560       2.71753492       0.00068973       0.00000000
Si       2.71604799      -0.00056748      -2.71618297       0.00000000
