10
Lattice="16.28999089631971 0.0 0.0 0.0 16.28999089631971 0.0 0.0 0.0 34.48637585096406" Properties=species:S:1:pos:R:3:initial_magmoms:R:1 pbc="T T T"
Si       1.89583997      -0.40411092      -1.36183326       0.00000000
Si      -1.81439390       0.88321936      -1.25733948       0.00000000
Si       0.26984222       1.66960282       1.67897015       0.00000000
Si      -0.87794696      -2.14700475       0.66541499       0.00000000
Si      -1.80116642       0.59535877       2.42573855       0.00000000
Si       0.39563197      -2.19660780       2.59592891       0.00000000
Si      -3.40390694       0.58081180       0.42152721       0.00000000
Si      -1.94130929      -0.64812697      -3.07011684       0.00000000
Si      -3.18839024      -1.70036553       0.92754608       0.00000000
Si       0.67586395       3.73234036       0.50474288       0.00000000
