10
Lattice="16.28999089631971 0.0 0.0 0.0 16.28999089631971 0.0 0.0 0.0 34.48637585096406" Properties=species:S:1:pos:R:3:initial_magmoms:R:1 pbc="T T T"
Si       0.67504131      -0.96665349      -2.05945854       0.00000000
Si      -0.15058476      -1.23846680       2.05414764       0.00000000
Si      -2.01943872       1.28371716       0.32010272       0.00000000
Si       2.00505465       1.41066513       0.20557340       0.00000000
Si      -0.68696559       2.04579594       2.50319499       0.00000000
Si       2.86998849      -1.80161047      -0.93127061       0.00000000
Si      -1.63527165      -2.95996535       1.34031375       0.00000000
Si      -2.53768878       2.03574501      -1.92347869       0.00000000
Si      -1.41503085       0.11517030       3.59910365       0.00000000
Si       1.65946230       0.60305580      -3.47122810       0.00000000
