10
Lattice="16.28999089631971 0.0 0.0 0.0 16.28999089631971 0.0 0.0 0.0 34.48637585096406" Properties=species:S:1:pos:R:3:initial_magmoms:R:1 pbc="T T T"
Si      -0.26984222      -1.66960282      -1.67897015       0.00000000
Si       0.40602173       2.06273754      -1.17422727       0.00000000
Si      -2.07100864      -1.07424405       0.74676840       0.00000000
Si       1.03717941       0.26404461       2.21788253       0.00000000
Si      -0.67063649       2.22136956       2.21590863       0.00000000
Si      -2.08423612      -0.78638346      -2.93630963       0.00000000
Si      -1.70870275       2.95774272      -1.57992522       0.00000000
Si      -1.30730086      -2.74403910       2.37956682       0.00000000
Si       0.31122859      -1.56589417       3.61426184       0.00000000
Si       0.12578975      -3.86621063       0.91695876       0.00000000
