10
Lattice="16.28999089631971 0.0 0.0 0.0 16.28999089631971 0.0 0.0 0.0 34.48637585096406" Properties=species:S:1:pos:R:3:initial_magmoms:R:1 pbc="T T T"
Si       1.34110683       1.35145098       1.37406213       0.00000000
Si      -1.30706073       1.32625035      -1.44227967       0.00000000
Si      -1.37396376      -1.36283769       1.36702691       0.00000000
Si       1.37896479      -1.34990343      -1.44904590       0.00000000
Si      -2.10487977      -0.63146556      -2.79187513       0.00000000
Si      -0.22651245      -2.49220710      -2.76825194       0.00000000
Si       2.72359026       2.67809229       0.00764908       0.00000000
Si       2.70071910      -2.71655298       0.00316930       0.00000000
Si      -2.73052980       2.69122203      -0.00072766       0.00000000
Si       2.70073539      -0.00317655       2.73065346       0.00000000
