10
Lattice="16.28999089631971 0.0 0.0 0.0 16.28999089631971 0.0 0.0 0.0 34.48637585096406" Properties=species:S:1:pos:R:3:initial_magmoms:R:1 pbc="T T T"
Si       1.35653346       1.35692442       1.35759143       0.00000000
Si      -1.35728280      -1.35764118       1.35714311       0.00000000
Si      -1.35741312       1.35764118      -1.35724657       0.00000000
Si       1.35782037      -1.35723393      -1.35735003       0.00000000
Si      -0.00052128      -2.71187775       2.71711410       0.00000000
Si       2.71482624      -2.71448415       0.00000000       0.00000000
Si      -2.71494027      -2.71450044       0.00010346       0.00000000
Si       2.71604799       0.00161271      -2.71366546       0.00000000
Si      -2.71526607       0.00201996      -2.71452762       0.00000000
Si       0.00167787      -2.71533123      -2.71459659       0.00000000
