10
Lattice="16.28999089631971 0.0 0.0 0.0 16.28999089631971 0.0 0.0 0.0 34.48637585096406" Properties=species:S:1:pos:R:3:initial_magmoms:R:1 pbc="T T T"
Si      -1.34068329      -1.35690813      -1.37035140       0.00000000
Si       1.35428544      -1.26309402       1.45284285       0.00000000
Si       1.37453391       1.35420399      -1.36924783       0.00000000
Si      -1.35944937       1.32423039       1.53085108       0.00000000
Si       2.01039777       0.57052467       2.95286310       0.00000000
Si       0.27526842       2.42051481       2.85430098       0.00000000
Si      -2.68903917       2.70433548       0.00665587       0.00000000
Si      -2.69882946      -2.71146235       0.02207129       0.00000000
Si      -2.69744481      -0.00267156      -2.73032239       0.00000000
Si       0.01637145       2.71189404      -2.72987407       0.00000000
