10
Lattice="16.28999089631971 0.0 0.0 0.0 16.28999089631971 0.0 0.0 0.0 34.48637585096406" Properties=species:S:1:pos:R:3:initial_magmoms:R:1 pbc="T T T"
Si      -0.72037638      -1.03920426       1.95396466       0.00000000
Si      -1.33889139      -0.17778906      -1.91475363       0.00000000
Si       0.69862923       2.27786328      -0.05062603       0.00000000
Si       1.83673008      -1.45863918      -0.47625712       0.00000000
Si      -0.60136164      -2.16288846      -2.88737343       0.00000000
Si       2.62589913       2.12665950      -1.40976935       0.00000000
Si      -0.28662255       1.38465000      -3.37870110       0.00000000
Si       1.23419556      -1.13485914       3.27241403       0.00000000
Si       3.70792980      -0.58370328       0.66424246       0.00000000
Si      -2.52610659       0.06229296       2.88437312       0.00000000
