10
Lattice="16.28999089631971 0.0 0.0 0.0 16.28999089631971 0.0 0.0 0.0 34.48637585096406" Properties=species:S:1:pos:R:3:initial_magmoms:R:1 pbc="T T T"
Si       1.26850230      -1.46435697       1.25968111       0.00000000
Si      -1.45896498       1.30267872       1.26723708       0.00000000
Si      -1.85173317      -0.93704967      -1.23963934       0.00000000
Si       1.98078255       0.07861554      -2.36399897       0.00000000
Si      -0.31032450      -1.00867680      -3.01613670       0.00000000
Si       2.59810839      -0.07333758       2.62174887       0.00000000
Si      -0.11253132       2.63430477       2.62457675       0.00000000
Si      -0.11398113      -2.79099828       2.62609416       0.00000000
Si      -2.82861189      -0.07485255       2.61919688       0.00000000
Si      -3.50968050       0.92893725      -1.30475448       0.00000000
