10
Lattice="16.28999089631971 0.0 0.0 0.0 16.28999089631971 0.0 0.0 0.0 34.48637585096406" Properties=species:S:1:pos:R:3:initial_magmoms:R:1 pbc="T T T"
Si      -1.34721558      -1.35483930      -1.38224920       0.00000000
Si       1.36819710       1.36008468      -1.38238715       0.00000000
Si       1.34182359      -1.38956958       1.47243113       0.00000000
Si      -1.45994238       1.36091547       1.39738873       0.00000000
Si      -2.69754255      -2.72100015      -0.00620755       0.00000000
Si       2.72012049      -2.69863398      -0.01162192       0.00000000
Si      -2.69505018       2.72614779      -0.04007319       0.00000000
Si       2.72574054       2.70938538      -0.00941479       0.00000000
Si      -2.70578529       0.00245979      -2.74270300       0.00000000
Si       0.00786807      -2.71344159      -2.74273749       0.00000000
