10
Lattice="16.28999089631971 0.0 0.0 0.0 16.28999089631971 0.0 0.0 0.0 34.48637585096406" Properties=species:S:1:pos:R:3:initial_magmoms:R:1 pbc="T T T"
Si      -1.34000939      -1.35153243       1.36292992       0.00000000
Si       1.37924025      -1.27676133      -1.41242135       0.00000000
Si       1.37436954       1.36384767       1.35548086       0.00000000
Si      -1.40090141       1.24862850      -1.45998843       0.00000000
Si       2.24844044       0.72075105      -2.53248773       0.00000000
Si       0.37921507       2.19206385      -2.66473823       0.00000000
Si      -2.68287554      -2.71666701      -0.02027800       0.00000000
Si      -2.69442515       0.00641826       2.72059033       0.00000000
Si      -2.68432535       2.73181671      -0.02172298       0.00000000
Si       0.01667068      -2.70816363       2.72172838       0.00000000
