10
Lattice="16.28999089631971 0.0 0.0 0.0 16.28999089631971 0.0 0.0 0.0 34.48637585096406" Properties=species:S:1:pos:R:3:initial_magmoms:R:1 pbc="T T T"
Si       1.35084825       1.34922807       1.36235400       0.00000000
Si      -1.36484136      -1.36189287       1.35959509       0.00000000
Si       1.37231847      -1.30751685      -1.41267655       0.00000000
Si      -1.33265232       1.36920123      -1.42161197       0.00000000
Si      -0.31874643      -2.11103739      -2.78109813       0.00000000
Si      -2.10509154      -0.34617879      -2.90366278       0.00000000
Si       2.57455305       0.18957880      -2.77768397       0.00000000
Si       2.71068858       2.71136366      -0.00574543       0.00000000
Si      -0.00366525       2.70779615       2.72080759       0.00000000
Si       2.70969489      -0.00728466       2.72322164       0.00000000
