10
Lattice="16.28999089631971 0.0 0.0 0.0 16.28999089631971 0.0 0.0 0.0 34.48637585096406" Properties=species:S:1:pos:R:3:initial_magmoms:R:1 pbc="T T T"
Si       2.10167064      -0.72985716       0.67841636       0.00000000
Si       0.78988581       1.83772377      -1.32476038       0.00000000
Si      -1.00183500      -1.57841955      -1.55692279       0.00000000
Si      -0.84085722       1.29033090       1.89137185       0.00000000
Si       1.02789900       2.76482744       2.01924741       0.00000000
Si       3.23985294      -0.71588034      -1.33069204       0.00000000
Si       2.87213877       1.30816845       1.70317960       0.00000000
Si      -3.52341297      -0.66202560       0.84512360       0.00000000
Si      -3.30761934      -1.11858543      -1.45836068       0.00000000
Si      -3.14367678       1.59200541       1.52647131       0.00000000
