10
Lattice="16.28999089631971 0.0 0.0 0.0 16.28999089631971 0.0 0.0 0.0 34.48637585096406" Properties=species:S:1:pos:R:3:initial_magmoms:R:1 pbc="T T T"
Si      -1.94733918       1.27379655       0.67910609       0.00000000
Si      -0.67017060      -2.00927376      -1.22040455       0.00000000
Si       1.64041929       0.93271653      -1.66662402       0.00000000
Si       1.38124539      -1.42320843       1.72849261       0.00000000
Si       2.93465979      -1.98412200      -0.12501318       0.00000000
Si       0.96892920      -3.50810037      -0.57268108       0.00000000
Si       2.85105951       2.40440400      -0.24940561       0.00000000
Si       0.51363999       1.85098383      -3.49381669       0.00000000
Si       3.22568064      -0.80132139      -2.22785561       0.00000000
Si      -3.67919424       1.37464794      -0.99689822       0.00000000
