10
Lattice="16.28999089631971 0.0 0.0 0.0 16.28999089631971 0.0 0.0 0.0 34.48637585096406" Properties=species:S:1:pos:R:3:initial_magmoms:R:1 pbc="T T T"
Si       1.35521397       1.35789554       1.35731554       0.00000000
Si       1.35775521      -1.35712522      -1.35755694       0.00000000
Si      -1.35855342       1.35746222      -1.35676376       0.00000000
Si      -1.35754344      -1.35725554       1.35821219       0.00000000
Si      -2.71505430      -0.00043190      -2.71242395       0.00000000
Si       2.71429957       0.00142462      -2.71463108       0.00000000
Si      -0.00043983       2.71520277      -2.71404481       0.00000000
Si      -2.71500543      -2.71484785      -0.00010346       0.00000000
Si       2.71511420       2.71492584      -0.00017243       0.00000000
Si       0.00100998       2.71728789       2.71290676       0.00000000
