10
Lattice="16.28999089631971 0.0 0.0 0.0 16.28999089631971 0.0 0.0 0.0 34.48637585096406" Properties=species:S:1:pos:R:3:initial_magmoms:R:1 pbc="T T T"
Si      -1.82472435      -0.12290805       1.52050516       0.00000000
Si       0.34868745       2.25921937      -0.72393841       0.00000000
Si       2.25041463      -0.33376092       0.80287776       0.00000000
Si      -1.00776456      -0.18340259      -2.25140982       0.00000000
Si       1.85536584      -2.63445042       1.32144969       0.00000000
Si      -0.69747264       0.90954075       3.35994050       0.00000000
Si       1.74270420       0.47142445      -3.24585951       0.00000000
Si      -1.87269840       3.02887300      -1.11456580       0.00000000
Si      -2.22348726      -2.41355802       1.85012613       0.00000000
Si       0.61486605       3.64673641       1.16395032       0.00000000
