10
Lattice="16.28999089631971 0.0 0.0 0.0 16.28999089631971 0.0 0.0 0.0 34.48637585096406" Properties=species:S:1:pos:R:3:initial_magmoms:R:1 pbc="T T T"
Si       1.29239973       1.12189230      -1.59496129       0.00000000
Si      -1.34320824      -1.52078553      -1.42925416       0.00000000
Si       2.01386754      -0.83727342       1.38462876       0.00000000
Si       0.89176347       0.47372949       3.05411515       0.00000000
Si      -1.51557273       0.06579531       3.30069288       0.00000000
Si       2.05254000       3.04015383      -0.41507825       0.00000000
Si       2.63067210      -2.73176784       0.08790582       0.00000000
Si       0.03631041       2.52907137      -2.93286099       0.00000000
Si       2.62962954       2.24855757       1.74456327       0.00000000
Si      -2.63996066      -0.19096767      -2.91985962       0.00000000
