10
Lattice="16.28999089631971 0.0 0.0 0.0 16.28999089631971 0.0 0.0 0.0 34.48637585096406" Properties=species:S:1:pos:R:3:initial_magmoms:R:1 pbc="T T T"
Si      -1.35619137      -1.35586557      -1.35634992       0.00000000
Si      -1.35698958       1.35747828       1.35741900       0.00000000
Si       1.35772263      -1.35755973       1.35745348       0.00000000
Si       1.36024758       1.35804843      -1.35786732       0.00000000
Si       2.71296918       0.00042354       2.71445865       0.00000000
Si       0.00058644       2.71355562       2.71435519       0.00000000
Si      -2.71581993      -0.00123804      -2.71294125       0.00000000
Si      -2.71441899      -2.71471221      -0.00003449       0.00000000
Si      -2.71435383       2.71533123       0.00010346       0.00000000
Si      -0.00151497      -2.71336014      -2.71652783       0.00000000
