10
Lattice="16.28999089631971 0.0 0.0 0.0 16.28999089631971 0.0 0.0 0.0 34.48637585096406" Properties=species:S:1:pos:R:3:initial_magmoms:R:1 pbc="T T T"
Si       1.35842310      -1.35293337       1.35521187       0.00000000
Si      -1.35785295      -1.35472527      -1.35793629       0.00000000
Si       1.35728280       1.35967743      -1.35779835       0.00000000
Si      -1.35798327       1.35899325       1.36028137       0.00000000
Si       2.69601129      -0.01340667       2.72828769       0.00000000
Si       2.71262709      -2.71232572      -0.00037935       0.00000000
Si      -0.00114030      -2.71275904      -2.71445865       0.00000000
Si      -2.71544526      -2.71333408      -0.00044832       0.00000000
Si      -2.71485882       0.00252495      -2.71528632       0.00000000
Si       2.71252935       2.71766070      -0.00079319       0.00000000
