10
Lattice="16.28999089631971 0.0 0.0 0.0 16.28999089631971 0.0 0.0 0.0 34.48637585096406" Properties=species:S:1:pos:R:3:initial_magmoms:R:1 pbc="T T T"
Si      -2.00555964       0.61010937       1.03745422       0.00000000
Si       1.03432119       2.11131432      -0.20536648       0.00000000
Si       0.89720663      -1.47022137       1.67845285       0.00000000
Si      -0.21699909      -1.32748839      -2.01062581       0.00000000
Si       3.14340704       1.26038988      -0.72545581       0.00000000
Si       0.35657181       2.74642884      -2.35400684       0.00000000
Si      -1.03803138      -2.78516646       2.19378305       0.00000000
Si      -2.83001283      -1.29028203       2.05107835       0.00000000
Si      -1.95971958      -2.88673461      -1.51964300       0.00000000
Si       1.68885502      -0.09726759       3.44115596       0.00000000
