10
Lattice="16.28999089631971 0.0 0.0 0.0 16.28999089631971 0.0 0.0 0.0 34.48637585096406" Properties=species:S:1:pos:R:3:initial_magmoms:R:1 pbc="T T T"
Si      -1.20409164      -1.36459701       1.45913804       0.00000000
Si       1.41245703       1.28594889       1.52341723       0.00000000
Si      -1.86237054       1.55406600      -0.64117106       0.00000000
Si       1.08623349      -2.19551733      -1.32662265       0.00000000
Si      -2.47811625      -2.72386719      -0.05097089       0.00000000
Si       2.44529190       2.06702181      -2.03659406       0.00000000
Si      -1.48168953       1.81345167      -3.01011051       0.00000000
Si       3.19257351       2.22938424       0.31866744       0.00000000
Si      -2.57465079       0.01109349       2.98250902       0.00000000
Si       0.13048290      -2.67934662       2.96312767       0.00000000
