10
Lattice="16.28999089631971 0.0 0.0 0.0 16.28999089631971 0.0 0.0 0.0 34.48637585096406" Properties=species:S:1:pos:R:3:initial_magmoms:R:1 pbc="T T T"
Si       1.35523026       1.33740900       1.38737733       0.00000000
Si      -1.37407779      -1.36702422       1.38289410       0.00000000
Si       1.28342394      -1.48318821      -1.43826545       0.00000000
Si      -0.75447135       1.89108981      -1.36909264       0.00000000
Si       2.71805386       2.69078220       0.00815258       0.00000000
Si       2.68432535      -2.73181671       0.02172298       0.00000000
Si      -2.70977634       2.70857088      -0.00591787       0.00000000
Si      -0.01339038       2.70389565       2.74072693       0.00000000
Si       2.70144514      -0.00935046       2.74534811       0.00000000
Si      -2.70368388      -2.75804361       0.02082633       0.00000000
