10
Lattice="16.28999089631971 0.0 0.0 0.0 16.28999089631971 0.0 0.0 0.0 34.48637585096406" Properties=species:S:1:pos:R:3:initial_magmoms:R:1 pbc="T T T"
Si       1.35558163       1.35889551      -1.35517738       0.00000000
Si      -1.35596331      -1.35715248      -1.35821219       0.00000000
Si       1.35664892      -1.35765747       1.35707413       0.00000000
Si      -1.35835794       1.35728280       1.35728105       0.00000000
Si       0.00936675       2.70565497      -2.71314816       0.00000000
Si       2.71408083      -0.00221544       2.71397584       0.00000000
Si       2.71415902       2.71409319       0.00000000       0.00000000
Si       2.71377783      -2.71490769      -0.00058627       0.00000000
Si      -0.00324171      -2.71477737       2.71411378       0.00000000
Si      -0.00203625       2.71437012       2.71507940       0.00000000
