10
Lattice="16.28999089631971 0.0 0.0 0.0 16.28999089631971 0.0 0.0 0.0 34.48637585096406" Properties=species:S:1:pos:R:3:initial_magmoms:R:1 pbc="T T T"
Si      -2.25590436       0.39045501      -0.33317306       0.00000000
Si       0.67774938      -0.63511452       2.14864036       0.00000000
Si       1.15309321       2.03159106      -0.22443746       0.00000000
Si       1.06146033      -1.49204997      -1.50440001       0.00000000
Si       2.87955791       0.28266408      -0.08252594       0.00000000
Si      -1.84679730       2.14524639      -1.93230721       0.00000000
Si      -1.08242163      -2.83055040      -1.65324330       0.00000000
Si       2.78683523      -1.48603896       1.62855104       0.00000000
Si      -0.35657181      -2.74642884       2.35400684       0.00000000
Si       0.80336646       3.20797341       1.81850210       0.00000000
