10
Lattice="16.28999089631971 0.0 0.0 0.0 16.28999089631971 0.0 0.0 0.0 34.48637585096406" Properties=species:S:1:pos:R:3:initial_magmoms:R:1 pbc="T T T"
Si      -0.97396281       1.72457343      -1.28765302       0.00000000
Si      -0.15700302       0.74409462       2.26458362       0.00000000
Si      -1.13288805      -2.05104132       0.55126503       0.00000000
Si       2.11592439       0.41666562      -1.11187587       0.00000000
Si       1.11902526      -1.17481851       2.86833694       0.00000000
Si      -0.96365124       0.38222856      -3.27662137       0.00000000
Si       0.63498420       3.38962320      -0.62979055       0.00000000
Si      -3.22016322      -1.00603782       1.11625564       0.00000000
Si       2.64448602       2.37868209       0.26454514       0.00000000
Si      -2.42851483       0.36691596       2.87895875       0.00000000
