10
Lattice="16.28999089631971 0.0 0.0 0.0 16.28999089631971 0.0 0.0 0.0 34.48637585096406" Properties=species:S:1:pos:R:3:initial_magmoms:R:1 pbc="T T T"
Si      -2.10908585       0.85092444       0.52008932       0.00000000
Si       0.97396281      -1.72457343       1.28765302       0.00000000
Si       0.01031157      -1.34234487      -1.98896835       0.00000000
Si       1.60894701       1.66504977       0.65786247       0.00000000
Si       0.09272268       1.76870304      -1.71107698       0.00000000
Si       3.08988720      -1.30790781       0.17577716       0.00000000
Si       2.41764777      -0.93441069      -2.23554608       0.00000000
Si      -3.14340704      -1.26038988       0.72545581       0.00000000
Si      -2.78683523       1.48603896      -1.62855104       0.00000000
Si      -1.72537490      -0.00601101      -3.13295105       0.00000000
