10
Lattice="16.28999089631971 0.0 0.0 0.0 16.28999089631971 0.0 0.0 0.0 34.48637585096406" Properties=species:S:1:pos:R:3:initial_magmoms:R:1 pbc="T T T"
Si       0.03830756       1.72353087      -1.64813931       0.00000000
Si       2.39004436       0.09370008       0.31910261       0.00000000
Si      -2.14333950      -0.02974554       1.14643123       0.00000000
Si      -0.08730951      -2.11955706      -1.31800105       0.00000000
Si       0.75833371       2.03269878       2.09908341       0.00000000
Si       0.38803432       0.54714852      -3.69107887       0.00000000
Si      -0.76505889      -1.48444254      -3.46664141       0.00000000
Si       3.08549704       2.30343858      -0.29282398       0.00000000
Si      -2.70767397      -2.18761668       1.74490813       0.00000000
Si       3.63072335      -1.30543173      -1.18022790       0.00000000
