10
Lattice="16.28999089631971 0.0 0.0 0.0 16.28999089631971 0.0 0.0 0.0 34.48637585096406" Properties=species:S:1:pos:R:3:initial_magmoms:R:1 pbc="T T T"
Si       1.35702053       1.35639174      -1.35752246       0.00000000
Si      -1.35799748      -1.35639272      -1.35717759       0.00000000
Si      -1.35718284       1.35710850       1.35728105       0.00000000
Si       1.35806309      -1.35770722       1.35783284       0.00000000
Si      -2.71244043       0.00106048      -2.71345854       0.00000000
Si       0.00015801       2.71421211       2.71425173       0.00000000
Si      -2.71429749       2.71468452      -0.00027589       0.00000000
Si      -2.71454184      -2.71494257      -0.00010346       0.00000000
Si       2.71506896      -2.71476338      -0.00044832       0.00000000
Si       0.00029974      -2.71518692       2.71490697       0.00000000
