10
Lattice="16.28999089631971 0.0 0.0 0.0 16.28999089631971 0.0 0.0 0.0 34.48637585096406" Properties=species:S:1:pos:R:3:initial_magmoms:R:1 pbc="T T T"
Si       1.35402480      -1.35656604      -1.35503944       0.00000000
Si       1.35501849       1.35896067       1.35693619       0.00000000
Si      -1.35983056      -1.35733167       1.35762592       0.00000000
Si      -1.35961064       1.35819504      -1.36138493       0.00000000
Si       0.00979029      -2.68806177      -2.73516428       0.00000000
Si       2.71215468      -2.71292031       0.00089665       0.00000000
Si       2.71272483       0.00162900       2.71459659       0.00000000
Si      -0.00278559      -2.71399545       2.71480351       0.00000000
Si       2.71277370       2.71640849       0.00048281       0.00000000
Si      -2.71840795      -2.71252935       0.00244853       0.00000000
