10
Lattice="16.28999089631971 0.0 0.0 0.0 16.28999089631971 0.0 0.0 0.0 34.48637585096406" Properties=species:S:1:pos:R:3:initial_magmoms:R:1 pbc="T T T"
Si      -1.87915806       1.16766720      -0.82663889       0.00000000
Si       0.34972675      -1.17638235      -2.04293956       0.00000000
Si      -0.03830756      -1.72353087       1.64813931       0.00000000
Si       1.31499233       1.93346010       0.51229540       0.00000000
Si      -1.17815049       0.53910126      -2.98231448       0.00000000
Si       3.04718948       0.57990771       1.35531533       0.00000000
Si       2.35173680      -1.62983079       1.96724192       0.00000000
Si      -0.80336646      -3.20797341      -1.81850210       0.00000000
Si       0.72002614       0.30916791       3.74722272       0.00000000
Si      -0.12561708      -3.84308793       0.33013826       0.00000000
