10
Lattice="10.86 0.0 0.0 0.0 10.86 0.0 0.0 0.0 10.86" Properties=species:S:1:pos:R:3:initial_magmoms:R:1 pbc="T T T"
Si      -1.08602172      -1.28944038       1.51706598       0.00000000
Si       1.62897828      -1.28944038      -1.19793402       0.00000000
Si       1.62897828       1.42555962       1.51706598       0.00000000
Si      -2.14933518       1.76974560      -0.74831916       0.00000000
Si      -0.01993896       2.47131246      -2.20027944       0.00000000
Si      -2.46988980       0.05095512      -2.39910432       0.00000000
Si      -2.44352172      -2.64694038       0.15956598       0.00000000
Si       0.27147828      -2.64694038      -2.55543402       0.00000000
Si      -2.44133886       0.03477372       2.79978402       0.00000000
Si       0.27147828      -2.64694038       2.87456598       0.00000000
