10
Lattice="10.86 0.0 0.0 0.0 10.86 0.0 0.0 0.0 10.86" Properties=species:S:1:pos:R:3:initial_magmoms:R:1 pbc="T T T"
Si       0.79908966       1.01146782      -1.93783668       0.00000000
Si      -1.84529862       1.22764698       0.82949766       0.00000000
Si      -1.80415008      -1.24277496      -1.47698172       0.00000000
Si       1.09455768      -2.48626668       0.00053214       0.00000000
Si      -0.11422548      -2.66380596       2.01369378       0.00000000
Si       2.15787114       2.59954734      -0.44908272       0.00000000
Si      -0.55712886       2.59954734       2.26591728       0.00000000
Si       3.35657622       1.32532182       0.90250944       0.00000000
Si       2.15787114      -0.11545266      -3.16408272       0.00000000
Si       3.22395390      -1.78469982      -1.45142814       0.00000000
