10
Lattice="10.86 0.0 0.0 0.0 10.86 0.0 0.0 0.0 10.86" Properties=species:S:1:pos:R:3:initial_magmoms:R:1 pbc="T T T"
Si       1.64891724       1.66924716       1.00234542       0.00000000
Si       1.64891724      -1.04575284      -1.71265458       0.00000000
Si      -1.06608276       1.66924716      -1.71265458       0.00000000
Si      -2.12939622      -0.70156686       1.45196028       0.00000000
Si       0.01993896      -2.47131246       2.20027944       0.00000000
Si      -2.44995084      -2.42035734      -0.19882488       0.00000000
Si      -2.42486424       2.79616764      -0.48640854       0.00000000
Si       3.00641724       0.31174716       2.35984542       0.00000000
Si       3.00641724      -2.40325284      -0.35515458       0.00000000
Si       0.13262232       3.11002164       2.35393758       0.00000000
