10
Lattice="10.86 0.0 0.0 0.0 10.86 0.0 0.0 0.0 10.86" Properties=species:S:1:pos:R:3:initial_magmoms:R:1 pbc="T T T"
Si      -1.40221062      -1.17644208       1.17040392       0.00000000
Si       1.31278938       1.53855792       1.17040392       0.00000000
Si       1.31278938      -1.17644208      -1.54459608       0.00000000
Si      -0.04471062      -2.53394208       2.52790392       0.00000000
Si       2.67028938       0.18105792       2.52790392       0.00000000
Si       2.67028938      -2.53394208      -0.18709608       0.00000000
Si      -2.75971062       0.18105792       2.52790392       0.00000000
Si      -2.75752776      -2.56722798      -0.26187804       0.00000000
Si      -0.04471062       2.89605792       2.52790392       0.00000000
Si       2.67028938       2.89605792      -0.18709608       0.00000000
