10
Lattice="10.86 0.0 0.0 0.0 10.86 0.0 0.0 0.0 10.86" Properties=species:S:1:pos:R:3:initial_magmoms:R:1 pbc="T T T"
Si      -1.36983696      -1.27477938      -1.28499864       0.00000000
Si       1.34516304      -1.27477938       1.43000136       0.00000000
Si       1.34516304       1.44022062      -1.28499864       0.00000000
Si      -0.01233696      -2.63227938      -2.64249864       0.00000000
Si       2.70266304      -2.63227938       0.07250136       0.00000000
Si       2.70266304       0.08272062      -2.64249864       0.00000000
Si      -2.72733696      -2.63227938       0.07250136       0.00000000
Si      -2.72733696       0.08272062      -2.64249864       0.00000000
Si      -2.64871056       0.00187878       2.75934138       0.00000000
Si      -0.01233696      -2.63227938       2.78750136       0.00000000
