10
Lattice="10.86 0.0 0.0 0.0 10.86 0.0 0.0 0.0 10.86" Properties=species:S:1:pos:R:3:initial_magmoms:R:1 pbc="T T T"
Si      -1.42322472      -1.36146390      -1.25961882       0.00000000
Si       1.29177528      -1.36146390       1.45538118       0.00000000
Si      -1.42322472       1.35353610       1.45538118       0.00000000
Si       2.39363088       2.66784588      -0.08679312       0.00000000
Si      -0.06572472      -2.71896390      -2.61711882       0.00000000
Si       2.64927528      -2.71896390       0.09788118       0.00000000
Si       2.64633222      -0.10976202      -2.72626182       0.00000000
Si      -2.78072472      -0.00396390      -2.61711882       0.00000000
Si       2.64927528      -0.00396390       2.81288118       0.00000000
Si      -2.78072472       2.71103610       0.09788118       0.00000000
