10
Lattice="10.86 0.0 0.0 0.0 10.86 0.0 0.0 0.0 10.86" Properties=species:S:1:pos:R:3:initial_magmoms:R:1 pbc="T T T"
Si       1.30413396      -1.31104092       1.40272104       0.00000000
Si       1.30413396       1.40395908      -1.31227896       0.00000000
Si      -1.41086604      -1.31104092      -1.31227896       0.00000000
Si       2.66163396      -2.66854092       0.04522104       0.00000000
Si       2.66163396       0.04645908      -2.66977896       0.00000000
Si      -0.05336604      -2.66854092      -2.66977896       0.00000000
Si       2.66163396       0.04645908       2.76022104       0.00000000
Si       2.66163396       2.76145908       0.04522104       0.00000000
Si      -0.05336604      -2.66854092       2.76022104       0.00000000
Si      -0.05336604       2.76145908      -2.66977896       0.00000000
