10
Lattice="16.28999089631971 0.0 0.0 0.0 16.28999089631971 0.0 0.0 0.0 34.71893929493243" Properties=species:S:1:pos:R:3:initial_magmoms:R:1 pbc="T T T"
Si       0.02780703      -1.35259128      -1.95870477       0.00000000
Si       1.84788873       0.53615277       1.48170100       0.00000000
Si      -2.17977209      -0.89153541       0.68399821       0.00000000
Si      -0.13457169       2.27665782      -0.97483892       0.00000000
Si      -3.21529481       0.25534575      -1.16124501       0.00000000
Si       0.43580637       1.46862495       3.11738687       0.00000000
Si      -2.13795566      -0.92642859      -2.95055599       0.00000000
Si      -2.20150295       2.24269317      -2.12466140       0.00000000
Si       3.27955167       1.91032830       0.00055550       0.00000000
Si       1.86116508      -0.64922166      -3.40190245       0.00000000
