10
Lattice="16.28999089631971 0.0 0.0 0.0 16.28999089631971 0.0 0.0 0.0 34.71893929493243" Properties=species:S:1:pos:R:3:initial_magmoms:R:1 pbc="T T T"
Si      -1.50588018       1.19489365      -1.30148530       0.00000000
Si      -1.34721558      -1.32972307       1.35407411       0.00000000
Si       1.16229150      -1.44660382      -1.46560529       0.00000000
Si       1.36622601       1.38712869       1.34907458       0.00000000
Si       0.33892974       2.03469040      -2.58437860       0.00000000
Si       2.07790353       0.36056872      -2.69976154       0.00000000
Si       0.00693954      -2.68891180       2.70707193       0.00000000
Si      -2.70326034      -2.69378251      -0.01230440       0.00000000
Si      -2.70682785       0.02443041       2.70731496       0.00000000
Si       2.72414412      -2.69511829      -0.04832879       0.00000000
