10
Lattice="16.28999089631971 0.0 0.0 0.0 16.28999089631971 0.0 0.0 0.0 34.71893929493243" Properties=species:S:1:pos:R:3:initial_magmoms:R:1 pbc="T T T"
Si      -1.35697329      -1.35750923       1.35730297       0.00000000
Si       1.35819504       1.35617508       1.35782376       0.00000000
Si       1.35785295      -1.35758091      -1.35740713       0.00000000
Si      -1.35742941       1.35770634      -1.35799735       0.00000000
Si       2.71389771      -0.00125433      -2.71533504       0.00000000
Si      -2.71357191      -0.00091224       2.71575167       0.00000000
Si      -2.71454931      -2.71516162      -0.00034719       0.00000000
Si      -2.71505430       2.71505430      -0.00038191       0.00000000
Si       2.71507059      -2.71504021      -0.00059022       0.00000000
Si       0.00050499      -2.71573102      -2.71446707       0.00000000
