10
Lattice="16.28999089631971 0.0 0.0 0.0 16.28999089631971 0.0 0.0 0.0 34.71893929493243" Properties=species:S:1:pos:R:3:initial_magmoms:R:1 pbc="T T T"
Si      -0.55113957       0.17480799       2.23367893       0.00000000
Si      -0.22501377       2.10527073      -1.00691924       0.00000000
Si       2.30703867      -0.45823770      -0.12304399       0.00000000
Si      -1.88064792      -1.30862457      -0.57855673       0.00000000
Si      -1.11858543      -2.09513835       2.72453556       0.00000000
Si      -3.46519251       0.42060780      -1.04326999       0.00000000
Si       2.95966494       0.71954559      -2.05491101       0.00000000
Si       1.27617489       1.16934507       3.31691044       0.00000000
Si       2.43124992      -2.58276321      -1.19679723       0.00000000
Si       1.92191049       2.77412184      -1.72310192       0.00000000
