10
Lattice="16.28999089631971 0.0 0.0 0.0 16.28999089631971 0.0 0.0 0.0 34.71893929493243" Properties=species:S:1:pos:R:3:initial_magmoms:R:1 pbc="T T T"
Si      -0.21675474       0.40508343      -2.25753085       0.00000000
Si      -1.61565849      -1.67734872       0.57439045       0.00000000
Si       2.02435830      -1.33851672       0.02281036       0.00000000
Si       0.65515122       2.37428379       1.01011338       0.00000000
Si      -0.79340445       1.02343554       2.96615664       0.00000000
Si      -2.65834881       0.04559571       1.87998478       0.00000000
Si      -0.00343719      -2.93234335       1.76305202       0.00000000
Si       2.05615638       1.20777318      -2.49625841       0.00000000
Si       2.50385445       2.54744649      -0.53606072       0.00000000
Si       3.25246140      -0.70467282      -1.85819339       0.00000000
