10
Lattice="16.28999089631971 0.0 0.0 0.0 16.28999089631971 0.0 0.0 0.0 34.71893929493243" Properties=species:S:1:pos:R:3:initial_magmoms:R:1 pbc="T T T"
Si      -1.35661491      -1.35459495       1.35633084       0.00000000
Si       1.35982404      -1.35156501      -1.35980274       0.00000000
Si       1.35896067       1.36013355       1.35653915       0.00000000
Si      -1.35368271       1.35891180      -1.36358710       0.00000000
Si       0.00102627      -2.71207323       2.71425875       0.00000000
Si      -2.71526607      -2.71252935      -0.00263864       0.00000000
Si      -2.71379997       0.00228060       2.71450179       0.00000000
Si       2.71552671      -2.71336014      -0.00142348       0.00000000
Si       2.71656927       0.00275301       2.71370325       0.00000000
Si       2.71520091       2.71604799      -0.00062494       0.00000000
