10
Lattice="16.28999089631971 0.0 0.0 0.0 16.28999089631971 0.0 0.0 0.0 34.71893929493243" Properties=species:S:1:pos:R:3:initial_magmoms:R:1 pbc="T T T"
Si      -1.35920502       1.35430173      -1.36115678       0.00000000
Si       1.35759231      -1.36098063      -1.35973330       0.00000000
Si       1.35412254       1.36537893       1.39153586       0.00000000
Si      -1.35721764      -1.37705886       1.38052995       0.00000000
Si       2.64183075      -0.10660176       2.77907905       0.00000000
Si       2.71251306       2.71223613       0.00052078       0.00000000
Si      -2.71608057       2.71254564       0.00475650       0.00000000
Si      -0.00032580       2.71256193      -2.71727930       0.00000000
Si       2.71450044      -0.00179190      -2.71752234       0.00000000
Si      -2.71417464      -2.71806795      -0.00180539       0.00000000
