10
Lattice="16.28999089631971 0.0 0.0 0.0 16.28999089631971 0.0 0.0 0.0 34.71893929493243" Properties=species:S:1:pos:R:3:initial_magmoms:R:1 pbc="T T T"
Si       1.35368271      -1.35891180       1.36358710       0.00000000
Si      -1.36143675       1.35879777       1.36237194       0.00000000
Si      -1.38098475      -1.34952876      -1.36852761       0.00000000
Si       1.34412048       1.38421017      -1.37444025       0.00000000
Si       2.71350675      -2.71047681       0.00378437       0.00000000
Si       2.71060713       2.71705797       0.00361077       0.00000000
Si       2.71264338       0.00122175       2.72012626       0.00000000
Si      -2.72300382      -2.71016730       0.00562447       0.00000000
Si      -0.00293220      -2.71350675       2.71991794       0.00000000
Si      -2.71832859       2.71754667       0.00340246       0.00000000
