10
Lattice="16.28999089631971 0.0 0.0 0.0 16.28999089631971 0.0 0.0 0.0 34.71893929493243" Properties=species:S:1:pos:R:3:initial_magmoms:R:1 pbc="T T T"
Si       1.35788553      -1.35679410      -1.36261497       0.00000000
Si      -1.35747828       1.36032903      -1.36341351       0.00000000
Si      -1.35350352      -1.35198855       1.39934763       0.00000000
Si       1.36770840       1.34910522       1.39413979       0.00000000
Si       2.71292031      -2.71523349      -0.00163179       0.00000000
Si      -2.71567332      -2.71492398       0.00260392       0.00000000
Si      -2.71601541       2.71492398      -0.00531200       0.00000000
Si       2.71406061       2.71774215      -0.00538144       0.00000000
Si       0.00008145      -2.71490769      -2.71943188       0.00000000
Si       2.71503801       0.00066789      -2.71939716       0.00000000
