10
Lattice="16.28999089631971 0.0 0.0 0.0 16.28999089631971 0.0 0.0 0.0 34.71893929493243" Properties=species:S:1:pos:R:3:initial_magmoms:R:1 pbc="T T T"
Si      -1.79563041      -0.73269162      -1.26897794       0.00000000
Si      -0.22123449      -1.18889307       1.98210535       0.00000000
Si       1.62206046      -0.71996913      -1.50944145       0.00000000
Si      -0.74357334       2.23474365       0.40822552       0.00000000
Si      -2.40797151      -0.23304474       2.29954079       0.00000000
Si       2.70619254       1.30135923      -1.91999313       0.00000000
Si       1.73845251      -0.50976297       3.12241483       0.00000000
Si      -3.51380187      -0.94710060       0.30833907       0.00000000
Si       3.15783279      -1.99301634      -0.20261984       0.00000000
Si      -2.18914794       2.72924289      -1.45680751       0.00000000
