10
Lattice="16.28999089631971 0.0 0.0 0.0 16.28999089631971 0.0 0.0 0.0 34.71893929493243" Properties=species:S:1:pos:R:3:initial_magmoms:R:1 pbc="T T T"
Si      -1.43527932       1.33380891      -1.22421132       0.00000000
Si      -1.36200690      -1.35215145       1.35967775       0.00000000
Si       1.35604476       1.36405944       1.36637851       0.00000000
Si       1.23893595      -1.30965084      -1.52690161       0.00000000
Si      -0.42225309      -2.41284222      -2.85452477       0.00000000
Si       2.70044217      -2.68548795      -0.01816496       0.00000000
Si       2.70326034       2.69378251       0.01230440       0.00000000
Si      -0.00511506      -2.71090035       2.71864723       0.00000000
Si       2.71019988       0.00487071       2.71937633       0.00000000
Si       2.32585362       0.24391017      -3.04981892       0.00000000
