10
Lattice="16.28999089631971 0.0 0.0 0.0 16.28999089631971 0.0 0.0 0.0 34.71893929493243" Properties=species:S:1:pos:R:3:initial_magmoms:R:1 pbc="T T T"
Si      -1.35738054      -1.34480466       1.36351766       0.00000000
Si      -1.35480672       1.35953964      -1.35942083       0.00000000
Si       1.36073628      -1.35420399      -1.36035824       0.00000000
Si       1.36490652       1.36957916       1.37941895       0.00000000
Si      -2.54643651       0.11229399       2.85584267       0.00000000
Si       2.71642266      -2.71057455      -0.00239561       0.00000000
Si      -2.71365336      -2.71339272      -0.00232617       0.00000000
Si      -2.71140534       2.71613663      -0.00097213       0.00000000
Si       0.00221544      -2.71223613      -2.71717515       0.00000000
Si      -2.71238274       0.00188725      -2.71707099       0.00000000
