10
Lattice="16.28999089631971 0.0 0.0 0.0 16.28999089631971 0.0 0.0 0.0 34.71893929493243" Properties=species:S:1:pos:R:3:initial_magmoms:R:1 pbc="T T T"
Si      -1.29121056       1.38041460      -1.41549195       0.00000000
Si      -1.69935651      -0.86649768       1.43038638       0.00000000
Si       1.43624043      -1.35399222      -1.38188399       0.00000000
Si       1.17551898       1.63168785       1.41892912       0.00000000
Si      -2.48026653       2.83751325       0.07683306       0.00000000
Si      -2.72323188      -2.66291001       0.09398422       0.00000000
Si       2.76216498       2.66533722      -0.01548466       0.00000000
Si      -2.64748338       0.01182654      -2.78133578       0.00000000
Si       0.06853203      -2.70309744      -2.77602378       0.00000000
Si       0.06616998       2.72521926      -2.77900961       0.00000000
