10
Lattice="16.28999089631971 0.0 0.0 0.0 16.28999089631971 0.0 0.0 0.0 34.71893929493243" Properties=species:S:1:pos:R:3:initial_magmoms:R:1 pbc="T T T"
Si      -0.94508064       0.80334135       2.02043508       0.00000000
Si      -1.37762901      -1.85269428      -0.58827804       0.00000000
Si      -0.50417550       0.87731424      -2.16573392       0.00000000
Si       2.30734818       0.09619245       0.64934868       0.00000000
Si      -3.40291747      -1.32238962       0.46377585       0.00000000
Si      -2.58997154       2.31575382       1.26540189       0.00000000
Si      -3.61891472       0.88273881      -0.34656465       0.00000000
Si       2.29206816       0.22468797       3.04599840       0.00000000
Si       0.68942538       1.92394674       3.24788915       0.00000000
Si       0.10702530      -1.12674672      -3.70649187       0.00000000
