10
Lattice="16.28999089631971 0.0 0.0 0.0 16.28999089631971 0.0 0.0 0.0 34.71893929493243" Properties=species:S:1:pos:R:3:initial_magmoms:R:1 pbc="T T T"
Si       1.38137571      -1.48359546      -1.30223870       0.00000000
Si       0.37719495       2.30079278      -0.70916945       0.00000000
Si      -2.47005270      -0.00358380      -0.14498637       0.00000000
Si       1.49252238      -0.77028894       1.82468959       0.00000000
Si       1.84435380       1.37125962       2.57586898       0.00000000
Si       0.00221544      -3.37287708      -1.37303066       0.00000000
Si       1.41679017      -0.37098846      -3.34614380       0.00000000
Si       1.81956042       3.11039698       1.02931297       0.00000000
Si       1.90493631       1.92596670      -2.66106931       0.00000000
Si      -1.41437925      -3.49470999       0.59751328       0.00000000
