10
Lattice="16.28999089631971 0.0 0.0 0.0 16.28999089631971 0.0 0.0 0.0 34.71893929493243" Properties=species:S:1:pos:R:3:initial_magmoms:R:1 pbc="T T T"
Si      -1.35687555       1.35677781      -1.35705994       0.00000000
Si       1.35720135      -1.35711990      -1.35709466       0.00000000
Si       1.35848826       1.35643572       1.35730297       0.00000000
Si      -1.35900954      -1.35739357       1.35674747       0.00000000
Si      -2.71288773      -0.00102627       2.71356437       0.00000000
Si       2.71278999       0.00086337       2.71512673       0.00000000
Si      -0.00386073      -2.71188778       2.71689739       0.00000000
Si      -0.00030951       2.71363707      -2.71530032       0.00000000
Si      -2.71480995       2.71492398       0.00038191       0.00000000
Si       2.71515204      -2.71471654      -0.00003472       0.00000000
