10
Lattice="16.28999089631971 0.0 0.0 0.0 16.28999089631971 0.0 0.0 0.0 34.71893929493243" Properties=species:S:1:pos:R:3:initial_magmoms:R:1 pbc="T T T"
Si      -1.69442064      -0.29008743      -1.57266467       0.00000000
Si       2.28328785       0.25935635      -0.50189727       0.00000000
Si      -0.55555416       1.99276710       1.16537657       0.00000000
Si      -0.08060292      -2.38591063       0.38669976       0.00000000
Si       0.96831018       1.56310206       2.87125788       0.00000000
Si       2.90590794       1.10201361       1.57120648       0.00000000
Si      -1.27294947      -2.78913700      -1.68067535       0.00000000
Si      -1.00071099       3.03232974      -1.67911300       0.00000000
Si       2.20931496      -3.02516281      -0.03732288       0.00000000
Si      -3.78968931       0.26073448      -0.57480708       0.00000000
