10
Lattice="16.28999089631971 0.0 0.0 0.0 16.28999089631971 0.0 0.0 0.0 34.71893929493243" Properties=species:S:1:pos:R:3:initial_magmoms:R:1 pbc="T T T"
Si       1.35687555      -1.35677781       1.35705994       0.00000000
Si       1.35656604       1.35685926      -1.35824038       0.00000000
Si      -1.35793440       1.35814617       1.35744185       0.00000000
Si      -1.35913986      -1.35847197      -1.35792791       0.00000000
Si       0.00052128      -2.71025038      -2.71530032       0.00000000
Si       2.71407690      -2.71389771      -0.00003472       0.00000000
Si      -0.00213399      -2.71417138       2.71380741       0.00000000
Si      -2.71239903       0.00084708      -2.71571695       0.00000000
Si       2.71383255      -0.00148239      -2.71575167       0.00000000
Si       2.71536381      -0.00034209       2.71436291       0.00000000
