10
Lattice="16.28999089631971 0.0 0.0 0.0 16.28999089631971 0.0 0.0 0.0 34.71893929493243" Properties=species:S:1:pos:R:3:initial_magmoms:R:1 pbc="T T T"
Si       1.07344584       1.66736295      -1.29671839       0.00000000
Si      -0.83494395       1.58926869       1.66123274       0.00000000
Si      -1.78922844      -1.20208797      -1.19155466       0.00000000
Si       1.80587682      -1.68580323       0.07961057       0.00000000
Si      -0.36458649      -0.38889117       2.97440791       0.00000000
Si       0.38115342      -2.47362021       2.11438458       0.00000000
Si       2.36628540       0.26178030      -2.62669754       0.00000000
Si      -0.36419553      -2.47083462      -2.60996300       0.00000000
Si       2.64264525       2.79472869       0.08217978       0.00000000
Si      -0.36821916       2.99478618      -2.58954825       0.00000000
