10
Lattice="16.28999089631971 0.0 0.0 0.0 16.28999089631971 0.0 0.0 0.0 34.71893929493243" Properties=species:S:1:pos:R:3:initial_magmoms:R:1 pbc="T T T"
Si       1.35624024       1.35591444      -1.35716410       0.00000000
Si       1.35760860      -1.35738054       1.35716410       0.00000000
Si      -1.35780408       1.35772263       1.35799735       0.00000000
Si      -1.35896067      -1.36013355      -1.35653915       0.00000000
Si       0.00086337      -2.71169856      -2.71634189       0.00000000
Si       0.00114030      -2.71373481       2.71467538       0.00000000
Si       2.71453302      -2.71425609       0.00020831       0.00000000
Si       2.71451673       2.71464705       0.00045135       0.00000000
Si      -2.71467963       2.71502172      -0.00031247       0.00000000
Si      -2.71495656       0.00026064       2.71477954       0.00000000
