10
Lattice="16.28999089631971 0.0 0.0 0.0 16.28999089631971 0.0 0.0 0.0 34.71893929493243" Properties=species:S:1:pos:R:3:initial_magmoms:R:1 pbc="T T T"
Si       1.35728280       1.35700587      -1.35761544       0.00000000
Si      -1.35708732      -1.35809730      -1.35699050       0.00000000
Si      -1.35806472       1.35897696       1.35702522       0.00000000
Si       1.35645201      -1.36023129       1.36046240       0.00000000
Si      -0.01500309       2.70866862       2.71033551       0.00000000
Si       0.00017919       2.71433754      -2.71460594       0.00000000
Si      -2.71375110       2.71534752      -0.00093741       0.00000000
Si      -2.71396287      -0.00079821      -2.71530032       0.00000000
Si       2.71523349      -0.00117288      -2.71453650       0.00000000
Si      -2.71423980      -2.71555929      -0.00020831       0.00000000
