10
Lattice="16.28999089631971 0.0 0.0 0.0 16.28999089631971 0.0 0.0 0.0 34.71893929493243" Properties=species:S:1:pos:R:3:initial_magmoms:R:1 pbc="T T T"
Si       0.95216679       1.23155658      -1.68237658       0.00000000
Si       1.63538568      -1.32830289       1.11687418       0.00000000
Si      -1.69316631      -1.48424706      -1.30661329       0.00000000
Si      -0.00573408       2.07863658       1.73167750       0.00000000
Si      -2.30104395       1.43244486       1.87319198       0.00000000
Si       0.02560788      -2.26844766       2.64391814       0.00000000
Si       1.66508235       3.06825408      -0.41468324       0.00000000
Si       2.26224117      -0.22680567      -2.97989351       0.00000000
Si      -2.04032250      -0.89055801       3.18463121       0.00000000
Si      -0.48899322       2.48314986      -3.00169701       0.00000000
