10
Lattice="16.28999089631971 0.0 0.0 0.0 16.28999089631971 0.0 0.0 0.0 34.71893929493243" Properties=species:S:1:pos:R:3:initial_magmoms:R:1 pbc="T T T"
Si       0.03577284       1.46973986      -1.90864004       0.00000000
Si      -0.48814614      -2.29695516      -0.68507449       0.00000000
Si       2.30948217       0.15770349       0.87245271       0.00000000
Si      -1.52774136       0.37482608       1.95189986       0.00000000
Si       1.99485711      -2.30769027      -1.31550135       0.00000000
Si      -0.08843841       3.59426537      -0.83488680       0.00000000
Si      -0.52356060      -3.40956216       1.35883061       0.00000000
Si       3.01575141      -2.12099058       0.78593307       0.00000000
Si       2.32015212       1.28199761      -2.70557901       0.00000000
Si      -1.90493631      -1.92596670       2.66106931       0.00000000
