10
Lattice="16.28999089631971 0.0 0.0 0.0 16.28999089631971 0.0 0.0 0.0 34.71893929493243" Properties=species:S:1:pos:R:3:initial_magmoms:R:1 pbc="T T T"
Si      -1.23711147       1.42252425       1.41656129       0.00000000
Si       1.80137005       0.70060032      -1.37889612       0.00000000
Si       1.45477782      -1.32291090       1.40603450       0.00000000
Si      -2.00608092      -0.71889399      -1.29994521       0.00000000
Si       0.51132681      -0.05592357      -3.44634067       0.00000000
Si      -2.66369193       2.69938332       0.00652369       0.00000000
Si       2.74345659       2.62782135      -0.09244964       0.00000000
Si      -2.60037270       0.05336604       2.77725630       0.00000000
Si      -2.72059290      -2.68845110      -0.04124959       0.00000000
Si       0.11635947      -2.65661230       2.77840203       0.00000000
