10
Lattice="16.28999089631971 0.0 0.0 0.0 16.28999089631971 0.0 0.0 0.0 34.71893929493243" Properties=species:S:1:pos:R:3:initial_magmoms:R:1 pbc="T T T"
Si       0.16889472      -1.86680142       1.40452076       0.00000000
Si      -0.85101729       1.65636720       1.49520668       0.00000000
Si       2.04402033      -0.23066640      -1.27828262       0.00000000
Si      -0.88315746      -2.73393441      -1.28349047       0.00000000
Si       0.66971448      -1.54295622      -2.69974623       0.00000000
Si      -2.14173494      -2.52019332       0.93098888       0.00000000
Si      -1.11189187       3.11735214      -1.25932607       0.00000000
Si      -2.11731623       1.34882829      -2.65325754       0.00000000
Si      -3.21731477       1.42796511       1.09458461       0.00000000
Si       0.14838561      -1.18113903       3.67562672       0.00000000
