10
Lattice="16.28999089631971 0.0 0.0 0.0 16.28999089631971 0.0 0.0 0.0 34.71893929493243" Properties=species:S:1:pos:R:3:initial_magmoms:R:1 pbc="T T T"
Si       0.57138804       1.75420494      -1.49669959       0.00000000
Si       1.18851418      -1.98995382      -1.02761174       0.00000000
Si       1.29004324       0.75652389       2.06744455       0.00000000
Si      -2.63006937      -0.83425977      -0.77787827       0.00000000
Si      -2.51740773      -0.66297042       2.14639546       0.00000000
Si      -0.51132681       0.05592357       3.44634067       0.00000000
Si      -1.28927205       2.09982987      -2.95770809       0.00000000
Si       2.21166139       1.00923066      -3.02575725       0.00000000
Si       3.26452319      -0.79109127       2.35868979       0.00000000
Si       2.51952284      -1.32341589      -2.96795018       0.00000000
