10
Lattice="16.28999089631971 0.0 0.0 0.0 16.28999089631971 0.0 0.0 0.0 34.71893929493243" Properties=species:S:1:pos:R:3:initial_magmoms:R:1 pbc="T T T"
Si      -1.07873587      -0.92999610      -1.84316008       0.00000000
Si       0.95833581      -1.53341028       1.49135287       0.00000000
Si       1.40245008       1.43213535      -1.21912152       0.00000000
Si      -1.61827696       1.22608314       1.20384517       0.00000000
Si      -2.62169209       2.29348539      -0.73475732       0.00000000
Si       2.36204511      -0.07885989       2.73693023       0.00000000
Si       0.13391357      -2.97050593      -2.13073721       0.00000000
Si      -2.92965454      -2.17108233      -1.10333379       0.00000000
Si       1.42295919       0.74647296      -3.49022748       0.00000000
Si       3.63650955       1.06738596      -0.64421028       0.00000000
