10
Lattice="16.28999089631971 0.0 0.0 0.0 16.28999089631971 0.0 0.0 0.0 34.71893929493243" Properties=species:S:1:pos:R:3:initial_magmoms:R:1 pbc="T T T"
Si       1.35430173      -1.35557235       1.35782376       0.00000000
Si       1.35645201       1.35892809      -1.35671275       0.00000000
Si      -1.35848826      -1.35643572      -1.35730297       0.00000000
Si      -1.35684297       1.36026387       1.36018464       0.00000000
Si      -0.00335574      -2.68421407       2.71210618       0.00000000
Si       0.00954594       2.71754667       2.70453744       0.00000000
Si       2.71498914      -2.71187612       0.00000000       0.00000000
Si      -0.00128691      -2.71355562      -2.71439763       0.00000000
Si       2.71406061       0.00083079      -2.71457122       0.00000000
Si      -2.71536381       0.00034209      -2.71436291       0.00000000
