10
Lattice="16.28999089631971 0.0 0.0 0.0 16.28999089631971 0.0 0.0 0.0 34.71893929493243" Properties=species:S:1:pos:R:3:initial_magmoms:R:1 pbc="T T T"
Si      -0.19106541      -1.02307716       2.12059928       0.00000000
Si       2.31062966       0.65339190       0.47353188       0.00000000
Si      -1.54807128       1.74689073       0.82929705       0.00000000
Si      -1.92094938      -1.42825833      -0.71135674       0.00000000
Si       1.25857747      -0.21374109      -2.21447934       0.00000000
Si      -3.31231086       0.41663304      -0.32781641       0.00000000
Si       2.14173494       2.52019332      -0.93098888       0.00000000
Si       1.02158404      -3.06358699       1.83302214       0.00000000
Si       2.29012055       1.33905429       2.74463784       0.00000000
Si      -1.35180936      -2.96025301      -2.34943194       0.00000000
