10
Lattice="16.28999089631971 0.0 0.0 0.0 16.28999089631971 0.0 0.0 0.0 34.71893929493243" Properties=species:S:1:pos:R:3:initial_magmoms:R:1 pbc="T T T"
Si       1.35436689       1.35026181      -1.35920557       0.00000000
Si      -1.35853713       1.35457866       1.35834454       0.00000000
Si       1.35772263      -1.35826020       1.35848342       0.00000000
Si      -1.37166687      -1.36533006      -1.37532558       0.00000000
Si      -2.71391400      -2.71303434      -0.00083326       0.00000000
Si       2.57707800      -0.04698036      -2.84321885       0.00000000
Si       2.71417464      -2.71389771      -0.00013888       0.00000000
Si       2.71507059       2.71345788       0.00041663       0.00000000
Si      -0.00026064       2.71331127       2.71595998       0.00000000
Si       2.71450044      -0.00096111       2.71561279       0.00000000
