10
Lattice="16.28999089631971 0.0 0.0 0.0 16.28999089631971 0.0 0.0 0.0 34.71893929493243" Properties=species:S:1:pos:R:3:initial_magmoms:R:1 pbc="T T T"
Si       0.47646621      -0.96663231      -2.05223765       0.00000000
Si      -1.36780614      -1.43229825       1.21592737       0.00000000
Si      -1.68508647       1.61738523       0.58060515       0.00000000
Si       2.10789342       0.16086375       1.17013306       0.00000000
Si      -0.04782744      -0.73741572       3.20174765       0.00000000
Si      -1.59519825      -1.07870751      -3.24038985       0.00000000
Si      -1.67821209       1.24844931       3.19223466       0.00000000
Si       1.09688715      -3.21610212      -1.80851056       0.00000000
Si      -3.81741489       0.52802406      -0.15182601       0.00000000
Si      -2.37102579      -3.04456842      -0.26435015       0.00000000
