10
Lattice="16.28999089631971 0.0 0.0 0.0 16.28999089631971 0.0 0.0 0.0 34.71893929493243" Properties=species:S:1:pos:R:3:initial_magmoms:R:1 pbc="T T T"
Si      -1.36096434      -1.36014984       1.38401574       0.00000000
Si       1.35580041       1.35791878       1.39175807       0.00000000
Si       1.43200503      -1.32509376      -1.45234959       0.00000000
Si      -1.48115196       1.32607998      -1.42789356       0.00000000
Si       2.69154117      -2.69356779       0.05260964       0.00000000
Si       2.69421876       2.69162018       0.01939054       0.00000000
Si      -2.71632492      -2.72311785      -0.00633968       0.00000000
Si      -2.72754873       2.71250396       0.02776475       0.00000000
Si      -0.00330687       2.71149398       2.74805419       0.00000000
Si       2.71187604      -0.00379209       2.74992901       0.00000000
