10
Lattice="16.28999089631971 0.0 0.0 0.0 16.28999089631971 0.0 0.0 0.0 34.71893929493243" Properties=species:S:1:pos:R:3:initial_magmoms:R:1 pbc="T T T"
Si      -1.14100047      -0.58909527       1.90673049       0.00000000
Si       2.06055209      -1.01560005       0.21116071       0.00000000
Si       1.06844481       2.02949358       0.54783045       0.00000000
Si      -1.27294947      -0.62848449      -1.90988992       0.00000000
Si       0.02125845       0.94234392      -3.36746124       0.00000000
Si      -0.57635649       3.49869194      -0.30136056       0.00000000
Si       2.82768566      -0.81435339      -2.02883707       0.00000000
Si       3.08949528       0.41741496       1.82312724       0.00000000
Si      -0.99882135      -2.93495301       2.04803665       0.00000000
Si      -1.19897658       2.65603467      -2.37446430       0.00000000
