10
Lattice="16.28999089631971 0.0 0.0 0.0 16.28999089631971 0.0 0.0 0.0 34.71893929493243" Properties=species:S:1:pos:R:3:initial_magmoms:R:1 pbc="T T T"
Si       2.06693126       0.03396465       1.14982247       0.00000000
Si      -0.74112984       2.25452364       0.17994836       0.00000000
Si       0.14260266      -1.09097388      -2.13157047       0.00000000
Si      -1.01379186      -1.98734742       0.96341638       0.00000000
Si       0.06354729      -3.16912176      -0.82589459       0.00000000
Si      -3.18252843      -1.17924939       1.12732459       0.00000000
Si       2.20150295      -2.24269317       2.12466140       0.00000000
Si       1.81138514       1.76445691       2.87847943       0.00000000
Si       0.13460427       3.53262401      -1.63050646       0.00000000
Si       0.56757196       3.51182168       1.77566642       0.00000000
