10
Lattice="16.28999089631971 0.0 0.0 0.0 16.28999089631971 0.0 0.0 0.0 34.71893929493243" Properties=species:S:1:pos:R:3:initial_magmoms:R:1 pbc="T T T"
Si       1.94546583      -0.62701839      -1.32084806       0.00000000
Si      -1.20723398      -1.44647055       1.61075627       0.00000000
Si       1.46471535       1.40784696       1.64371498       0.00000000
Si      -1.82777221      -0.18766080      -2.14066684       0.00000000
Si       3.46915098       1.31979951      -1.07479480       0.00000000
Si      -2.48485121       0.04375494       3.08562458       0.00000000
Si       2.53387692       3.06654363       0.26500981       0.00000000
Si      -2.14932052      -3.37369158       0.32430979       0.00000000
Si       1.47813831      -0.56920518      -3.71274129       0.00000000
Si       3.13865946      -2.59261866      -0.25431637       0.00000000
