10
Lattice="16.28999089631971 0.0 0.0 0.0 16.28999089631971 0.0 0.0 0.0 34.71893929493243" Properties=species:S:1:pos:R:3:initial_magmoms:R:1 pbc="T T T"
Si      -1.34988225      -1.34705268       1.36120191       0.00000000
Si       1.23562908      -1.35407367      -1.47332332       0.00000000
Si      -1.41131999       1.38181554      -1.28397306       0.00000000
Si       1.36503684       1.36531377       1.36217404       0.00000000
Si       2.30479065       0.30462300      -2.85202848       0.00000000
Si       2.70238068      -2.70176166      -0.00975603       0.00000000
Si      -2.70846404       0.00723276       2.72201150       0.00000000
Si       0.00908982      -2.71010214       2.72204622       0.00000000
Si      -2.71393748      -2.71816569      -0.03141371       0.00000000
Si       2.72192868       0.00656487       2.72114352       0.00000000
