10
Lattice="16.28999089631971 0.0 0.0 0.0 16.28999089631971 0.0 0.0 0.0 34.71893929493243" Properties=species:S:1:pos:R:3:initial_magmoms:R:1 pbc="T T T"
Si      -0.64083231       2.17267875      -0.37034713       0.00000000
Si       0.22638213      -0.66132513       2.20614679       0.00000000
Si      -1.97802628      -1.05738390      -0.62751046       0.00000000
Si       2.09124504      -0.19844478      -1.10812500       0.00000000
Si      -1.18692198      -3.26436939      -0.75694274       0.00000000
Si      -1.28104560       1.80208125      -2.81973495       0.00000000
Si       3.52714338       0.35188029       0.74572851       0.00000000
Si       2.26577610       0.37379034       2.87601438       0.00000000
Si      -2.18632488      -0.42686316      -2.93736278       0.00000000
Si       0.95019570      -2.99195172       2.10504518       0.00000000
