10
Lattice="16.28999089631971 0.0 0.0 0.0 16.28999089631971 0.0 0.0 0.0 34.71893929493243" Properties=species:S:1:pos:R:3:initial_magmoms:R:1 pbc="T T T"
Si      -1.35729909       1.35700587       1.35935139       0.00000000
Si       1.36200690       1.35215145      -1.35967775       0.00000000
Si       1.35689184      -1.35874890       1.35896948       0.00000000
Si      -1.36503684      -1.36531377      -1.36217404       0.00000000
Si      -0.07327242       2.68596036      -2.58388906       0.00000000
Si      -2.77635683       0.01650177      -2.64614710       0.00000000
Si      -2.71491909      -2.71236645      -0.00097213       0.00000000
Si       0.00042354       2.71409319       2.71696683       0.00000000
Si      -2.71450696      -0.00107514       2.71672380       0.00000000
Si       2.71629234      -0.00130320       2.71641133       0.00000000
