10
Lattice="16.28999089631971 0.0 0.0 0.0 16.28999089631971 0.0 0.0 0.0 34.71893929493243" Properties=species:S:1:pos:R:3:initial_magmoms:R:1 pbc="T T T"
Si       1.69935651       0.86649768      -1.43038638       0.00000000
Si      -1.02387537      -1.79641233      -1.33640216       0.00000000
Si       0.55998504      -0.80630613       2.27936908       0.00000000
Si      -1.72520874       1.96608897       0.05926526       0.00000000
Si       0.40814595       2.24691228      -2.84587833       0.00000000
Si      -2.30778312      -0.47343627      -2.83928172       0.00000000
Si       2.87487549       2.49818553      -0.01145726       0.00000000
Si      -2.73103642      -2.67081066       0.07603452       0.00000000
Si      -1.56488256      -1.90285119       2.94819510       0.00000000
Si      -3.55440160       0.94356567      -1.36841304       0.00000000
