10
Lattice="16.28999089631971 0.0 0.0 0.0 16.28999089631971 0.0 0.0 0.0 34.71893929493243" Properties=species:S:1:pos:R:3:initial_magmoms:R:1 pbc="T T T"
Si       0.93745692       2.11799322      -0.42857083       0.00000000
Si       0.50417550      -0.87731424       2.16573392       0.00000000
Si      -2.34760566       0.20667123      -0.42082850       0.00000000
Si       0.61120080      -2.00406096      -1.54075795       0.00000000
Si      -0.87345351      -2.73000852       1.57745589       0.00000000
Si      -1.51366680      -3.10060602      -0.87193193       0.00000000
Si      -3.11473922       0.00542457       1.81916928       0.00000000
Si       3.26656854       1.54072449      -0.16786617       0.00000000
Si      -0.32739642       3.73309038       0.81343048       0.00000000
Si      -2.80345198       2.12851656      -1.67390516       0.00000000
