10
Lattice="10.86 0.0 0.0 0.0 10.86 0.0 0.0 0.0 10.86" Properties=species:S:1:pos:R:3:initial_magmoms:R:1 pbc="T T T"
Si       1.53022830      -1.32396432      -1.17480222       0.00000000
Si      -1.18477170      -1.32396432       1.54019778       0.00000000
Si      -1.87401246       1.51915110      -0.36464622       0.00000000
Si       1.53022830       1.39103568       1.54019778       0.00000000
Si      -2.38704972       0.17998278      -2.25535050       0.00000000
Si       0.17272830      -2.68146432      -2.53230222       0.00000000
Si      -2.54227170      -2.68146432       0.18269778       0.00000000
Si      -2.48713548       0.04060554       2.80211892       0.00000000
Si       2.88772830       0.03353568      -2.53230222       0.00000000
Si       2.88772830      -2.68146432       0.18269778       0.00000000
