10
Lattice="10.86 0.0 0.0 0.0 10.86 0.0 0.0 0.0 10.86" Properties=species:S:1:pos:R:3:initial_magmoms:R:1 pbc="T T T"
Si       0.80630070      -1.82810724      -0.88477506       0.00000000
Si       0.80630070       0.88689276       1.83022494       0.00000000
Si      -1.90869930       0.88689276      -0.88477506       0.00000000
Si       2.16380070      -0.47060724      -2.24227506       0.00000000
Si       2.16380070       2.24439276       0.47272494       0.00000000
Si      -0.55119930       2.24439276      -2.24227506       0.00000000
Si       3.52130070       0.88689276      -0.88477506       0.00000000
Si       0.80630070       0.88689276      -3.59977506       0.00000000
Si       0.80630070       3.60189276      -0.88477506       0.00000000
Si       2.16380070      -3.18560724       0.47272494       0.00000000
