10
Lattice="10.86 0.0 0.0 0.0 10.86 0.0 0.0 0.0 10.86" Properties=species:S:1:pos:R:3:initial_magmoms:R:1 pbc="T T T"
Si       1.54014348      -0.96220686      -1.26873036       0.00000000
Si      -1.03198236      -1.65327210       1.37339904       0.00000000
Si      -1.17485652       1.75279314      -1.26873036       0.00000000
Si       1.54014348       1.75279314       1.44626964       0.00000000
Si       0.18264348      -2.31970686      -2.62623036       0.00000000
Si      -2.38040340       0.03198270       2.59506216       0.00000000
Si      -2.59158696      -2.47310436      -0.15270246       0.00000000
Si      -2.53235652       0.39529314      -2.62623036       0.00000000
Si       3.13886580      -2.19062490      -0.08330706       0.00000000
Si       2.76706284       0.44085084       2.67734838       0.00000000
