10
Lattice="10.86 0.0 0.0 0.0 10.86 0.0 0.0 0.0 10.86" Properties=species:S:1:pos:R:3:initial_magmoms:R:1 pbc="T T T"
Si      -1.20800124      -1.27457304       1.35868374       0.00000000
Si      -1.20800124       1.44042696      -1.35631626       0.00000000
Si       1.50699876       1.44042696       1.35868374       0.00000000
Si      -2.54814696      -2.59589838      -0.27924318       0.00000000
Si      -2.56550124       0.08292696       2.71618374       0.00000000
Si       0.14949876      -2.63207304       2.71618374       0.00000000
Si      -2.56550124       2.79792696       0.00118374       0.00000000
Si      -2.41354812      -0.28038348      -2.92252374       0.00000000
Si       0.14949876       2.79792696      -2.71381626       0.00000000
Si       0.14949876       2.79792696       2.71618374       0.00000000
