10
Lattice="10.86 0.0 0.0 0.0 10.86 0.0 0.0 0.0 10.86" Properties=species:S:1:pos:R:3:initial_magmoms:R:1 pbc="T T T"
Si       1.21916532      -1.19517558      -1.45986636       0.00000000
Si      -1.49583468      -1.19517558       1.25513364       0.00000000
Si       1.21916532       1.51982442       1.25513364       0.00000000
Si       2.57666532      -2.55267558      -0.10236636       0.00000000
Si      -0.13833468      -2.55267558       2.61263364       0.00000000
Si       2.57666532       0.16232442       2.61263364       0.00000000
Si       2.57666532       0.16232442      -2.81736636       0.00000000
Si       2.57666532       2.87732442      -0.10236636       0.00000000
Si      -2.85333468       0.16232442       2.61263364       0.00000000
Si      -0.13833468       2.87732442       2.61263364       0.00000000
