10
Lattice="10.86 0.0 0.0 0.0 10.86 0.0 0.0 0.0 10.86" Properties=species:S:1:pos:R:3:initial_magmoms:R:1 pbc="T T T"
Si      -1.22691936       1.31194230      -1.23107874       0.00000000
Si       1.48808064      -1.40305770      -1.23107874       0.00000000
Si       1.48808064       1.31194230       1.48392126       0.00000000
Si      -2.58441936       2.66944230       0.12642126       0.00000000
Si       0.13058064       2.66944230      -2.58857874       0.00000000
Si       0.37180296      -2.63147574      -2.76065544       0.00000000
Si       2.84558064      -0.04555770      -2.58857874       0.00000000
Si      -2.76706284      -0.44085084      -2.67734838       0.00000000
Si       0.13058064       2.66944230       2.84142126       0.00000000
Si       2.84558064       2.66944230       0.12642126       0.00000000
