10
Lattice="10.86 0.0 0.0 0.0 10.86 0.0 0.0 0.0 10.86" Properties=species:S:1:pos:R:3:initial_magmoms:R:1 pbc="T T T"
Si      -1.18413096      -1.36519974       1.33533474       0.00000000
Si      -1.18413096       1.34980026      -1.37966526       0.00000000
Si       1.72693548       0.54261990       1.68280044       0.00000000
Si       1.53086904      -1.36519974      -1.37966526       0.00000000
Si       2.66848662       2.31917472       0.07253394       0.00000000
Si       0.28187130       2.47189890       2.56227582       0.00000000
Si      -2.54163096      -0.00769974       2.69283474       0.00000000
Si      -2.54163096       2.70730026      -0.02216526       0.00000000
Si      -2.54163096      -2.72269974      -0.02216526       0.00000000
Si      -2.54163096      -0.00769974      -2.73716526       0.00000000
