10
Lattice="10.86 0.0 0.0 0.0 10.86 0.0 0.0 0.0 10.86" Properties=species:S:1:pos:R:3:initial_magmoms:R:1 pbc="T T T"
Si       1.42218216       1.41278826       1.27713600       0.00000000
Si      -1.29281784       1.41278826      -1.43786400       0.00000000
Si       1.42218216      -1.30221174      -1.43786400       0.00000000
Si      -2.56416546       0.12647556       2.58283380       0.00000000
Si       0.06468216       2.77028826       2.63463600       0.00000000
Si       2.77968216       0.05528826       2.63463600       0.00000000
Si      -2.65031784       2.77028826      -0.08036400       0.00000000
Si       2.77968216      -2.65971174      -0.08036400       0.00000000
Si       0.15121464      -2.54931984      -2.97736674       0.00000000
Si       2.77968216       2.77028826      -0.08036400       0.00000000
