10
Lattice="10.86 0.0 0.0 0.0 10.86 0.0 0.0 0.0 10.86" Properties=species:S:1:pos:R:3:initial_magmoms:R:1 pbc="T T T"
Si      -1.40063592      -1.43147832       1.17157680       0.00000000
Si      -1.40063592       1.28352168      -1.54342320       0.00000000
Si       1.31436408      -1.43147832      -1.54342320       0.00000000
Si       2.62929288       0.35211378       2.37490824       0.00000000
Si      -2.57902194      -0.20956542       2.56524060       0.00000000
Si      -1.20456948       3.19134132       1.51904250       0.00000000
Si      -0.04313592      -2.78897832       2.52907680       0.00000000
Si       2.67186408      -2.78897832      -0.18592320       0.00000000
Si       2.75839656       2.75141358      -0.36792594       0.00000000
Si      -0.04313592       2.64102168      -2.90092320       0.00000000
