10
Lattice="16.2900001489832 0.0 0.0 0.0 16.2900001489832 0.0 0.0 0.0 29.27633928601476" Properties=species:S:1:pos:R:3:initial_magmoms:R:1 pbc="T T T"
Si      -1.39268750      -1.32379057       1.41498110       0.00000000
Si      -1.48530918       1.42657884      -1.21093673       0.00000000
Si       1.32281317       1.38512079       1.42938506       0.00000000
Si       1.35959599      -1.32403492      -1.52423747       0.00000000
Si      -0.28582434      -2.48466485      -2.85825193       0.00000000
Si       2.75931426      -2.66080862      -0.09323343       0.00000000
Si       2.67792941       2.74426230       0.03436164       0.00000000
Si       2.48477888       0.30612168      -2.92110823       0.00000000
Si      -2.81815374      -2.64331316       0.02571634       0.00000000
Si      -0.08861760       2.72008793       2.77717989       0.00000000
