10
Lattice="16.2900001489832 0.0 0.0 0.0 16.2900001489832 0.0 0.0 0.0 29.27633928601476" Properties=species:S:1:pos:R:3:initial_magmoms:R:1 pbc="T T T"
Si      -1.24797691       1.44264241       1.45277978       0.00000000
Si       1.30217374       0.56856988      -1.93178754       0.00000000
Si      -2.05635188      -0.73933795      -0.99672205       0.00000000
Si       1.38846187      -1.29528307       1.48169310       0.00000000
Si      -2.68654682      -2.73057870       0.19105446       0.00000000
Si      -2.60784658       0.04869081       2.89227982       0.00000000
Si      -2.69464295       2.81447220       0.12735208       0.00000000
Si       0.08702118      -2.68335398       2.88156468       0.00000000
Si       3.23268537      -2.23576994       0.32696987       0.00000000
Si       1.86575888      -1.33600807      -3.20975830       0.00000000
