10
Lattice="16.2900001489832 0.0 0.0 0.0 16.2900001489832 0.0 0.0 0.0 29.27633928601476" Properties=species:S:1:pos:R:3:initial_magmoms:R:1 pbc="T T T"
Si       0.95247631       1.87686214      -1.12500189       0.00000000
Si      -1.33016974      -0.68035186      -1.88305414       0.00000000
Si       1.76083499      -1.49913613       0.65833704       0.00000000
Si      -1.96498127       0.60689129       1.39004059       0.00000000
H       -1.46689985      -2.08464761       1.19921741       0.00000000
Si      -1.15497404       2.93729880      -1.61265787       0.00000000
Si      -2.82225882       1.21569013      -1.89236402       0.00000000
Si       1.63564633      -3.13111722      -1.01094127       0.00000000
Si       2.29863305       3.15263631       0.35728844       0.00000000
Si      -3.94325518       0.19807011       0.06036781       0.00000000
