10
Lattice="16.2900001489832 0.0 0.0 0.0 16.2900001489832 0.0 0.0 0.0 29.27633928601476" Properties=species:S:1:pos:R:3:initial_magmoms:R:1 pbc="T T T"
Si      -1.29696094       1.35375424       1.45369028       0.00000000
Si       1.36119241      -1.37919286       1.42695513       0.00000000
Si       1.32434443       1.49535685      -1.35615615       0.00000000
Si      -1.92863828      -0.92844856      -1.16557714       0.00000000
Si      -2.79880122       2.58307926       0.07460490       0.00000000
Si       2.69403697       2.69069915       0.19030206       0.00000000
Si      -0.22978674       2.78970814      -2.60924203       0.00000000
Si       2.74313829      -2.71049312       0.06534479       0.00000000
Si      -2.64339461      -0.07060086       2.81253107       0.00000000
Si       0.02770929      -2.75617029       2.80225508       0.00000000
