10
Lattice="16.2900001489832 0.0 0.0 0.0 16.2900001489832 0.0 0.0 0.0 29.27633928601476" Properties=species:S:1:pos:R:3:initial_magmoms:R:1 pbc="T T T"
Si       1.26480448       1.35794256      -1.48331501       0.00000000
Si      -1.56903652       1.17586923       1.34641884       0.00000000
Si      -1.36868581      -1.36405131      -1.42338634       0.00000000
Si       1.85086982      -0.75816430       1.36313563       0.00000000
H       -0.51660477      -3.05021293       2.02934801       0.00000000
Si       2.68882742      -2.61825100       0.03870332       0.00000000
Si       2.67410126       2.65562026      -0.13171425       0.00000000
Si      -0.54924994       3.01595506       2.30448705       0.00000000
Si      -2.80486110       2.61497671      -0.12474648       0.00000000
Si      -2.77206933      -2.67955027      -0.06115827       0.00000000
