10
Lattice="16.2900001489832 0.0 0.0 0.0 16.2900001489832 0.0 0.0 0.0 29.27633928601476" Properties=species:S:1:pos:R:3:initial_magmoms:R:1 pbc="T T T"
Si       2.03504456      -0.10223604      -1.15070652       0.00000000
Si      -1.04813119       2.08246475      -0.29296833       0.00000000
Si      -1.39378870      -1.61494174      -1.04765380       0.00000000
Si       0.14928156      -0.87306256       2.20685046       0.00000000
Si       3.36970056       0.08360028       0.79450130       0.00000000
Si      -2.07713792      -1.31805649       2.53796585       0.00000000
H        2.17611596       2.79674868      -0.21529820       0.00000000
Si       0.11347614      -3.13863342      -1.84640017       0.00000000
Si      -3.30441024       1.59093028       0.09330369       0.00000000
Si       1.96371065      -1.97796766      -2.62992283       0.00000000
