10
Lattice="16.2900001489832 0.0 0.0 0.0 16.2900001489832 0.0 0.0 0.0 29.27633928601476" Properties=species:S:1:pos:R:3:initial_magmoms:R:1 pbc="T T T"
Si      -1.87046669      -1.31665555       0.47497933       0.00000000
Si      -0.41089896       1.13969728      -2.01435852       0.00000000
Si       1.92870344      -1.14429106      -0.77822365       0.00000000
Si       0.34129179       1.25341777       2.00689306       0.00000000
H        0.61401898      -2.99491653      -0.25760251       0.00000000
H        1.64268362       0.84836692       2.68469887       0.00000000
Si      -0.81911008      -3.35640792       0.15405210       0.00000000
Si       3.09293346       0.89798626      -1.37882775       0.00000000
Si       0.76865995       3.38952549       1.17474239       0.00000000
Si      -2.41219064      -1.15113286       2.75490353       0.00000000
