10
Lattice="16.2900001489832 0.0 0.0 0.0 16.2900001489832 0.0 0.0 0.0 29.27633928601476" Properties=species:S:1:pos:R:3:initial_magmoms:R:1 pbc="T T T"
Si      -1.33628500      -1.29386584       1.40166330       0.00000000
Si       1.36391284      -1.43915635      -1.25551581       0.00000000
Si       1.30147327       1.30453579       1.49889002       0.00000000
Si      -1.46171800       1.40776552      -1.27682899       0.00000000
Si      -2.13221441       0.54810964       2.70299658       0.00000000
Si      -0.39861630       2.34647678       2.78227690       0.00000000
Si       2.67234194      -0.06374277      -2.61138213       0.00000000
Si       2.67059891       2.67763619       0.13440767       0.00000000
Si      -0.04067613       2.74828593      -2.63867060       0.00000000
Si       0.01225008      -2.73598698      -2.66409418       0.00000000
