10
Lattice="16.2900001489832 0.0 0.0 0.0 16.2900001489832 0.0 0.0 0.0 29.27633928601476" Properties=species:S:1:pos:R:3:initial_magmoms:R:1 pbc="T T T"
Si       0.77297680       1.97061761       0.95335471       0.00000000
Si      -0.17503605      -0.10085139      -2.33080648       0.00000000
Si      -2.18561303      -0.46592658       0.78803122       0.00000000
Si       1.56480112      -1.66052117       0.65461895       0.00000000
H        2.68874597      -0.86159440       1.31673264       0.00000000
H        1.03575079      -0.44926191       3.08686794       0.00000000
Si      -0.91395046      -2.43688628      -2.03722335       0.00000000
Si      -2.86493862      -2.15585120      -0.74695652       0.00000000
Si      -0.65796940       2.43349796       2.75071701       0.00000000
Si       2.89764894       1.64457326       1.83082515       0.00000000
