10
Lattice="16.2900001489832 0.0 0.0 0.0 16.2900001489832 0.0 0.0 0.0 29.27633928601476" Properties=species:S:1:pos:R:3:initial_magmoms:R:1 pbc="T T T"
Si      -1.37174833      -1.09235854       1.52140352       0.00000000
Si       0.97893127       1.52440192       1.51522622       0.00000000
Si      -1.52907715       1.49218030      -1.05921796       0.00000000
Si       1.39173616      -1.67686004      -1.01085344       0.00000000
Si      -0.71048836       3.20206017       1.24275133       0.00000000
Si      -0.09190818      -1.33786513       3.42161360       0.00000000
Si       1.81680743      -0.74701054      -3.11096237       0.00000000
Si      -2.90282101       2.17261361       0.89219644       0.00000000
Si      -3.06224147       0.31671018       2.32784957       0.00000000
Si      -2.11361123       0.80905915      -3.17455057       0.00000000
