10
Lattice="16.2900001489832 0.0 0.0 0.0 16.2900001489832 0.0 0.0 0.0 29.27633928601476" Properties=species:S:1:pos:R:3:initial_magmoms:R:1 pbc="T T T"
Si      -1.25348293       1.33017625      -1.46487091       0.00000000
Si       1.35527914       1.30095199       1.41917055       0.00000000
Si       1.35223291      -1.34179102      -1.39241197       0.00000000
Si      -1.27702198      -1.42638499       1.39191428       0.00000000
Si       0.68173651      -2.20144691       2.58741359       0.00000000
Si       2.41533461      -0.40307976       2.66669392       0.00000000
Si      -2.64901466       2.63842616      -0.01879541       0.00000000
Si      -2.58794345      -2.79798672      -0.03334575       0.00000000
Si       2.76815973       2.67975389       0.04596385       0.00000000
Si      -2.60141528      -0.01211976      -2.85357650       0.00000000
