10
Lattice="16.2900001489832 0.0 0.0 0.0 16.2900001489832 0.0 0.0 0.0 29.27633928601476" Properties=species:S:1:pos:R:3:initial_magmoms:R:1 pbc="T T T"
Si      -0.24555546       1.63027063       1.70824512       0.00000000
Si      -1.18208386      -2.02878920      -0.35608811       0.00000000
Si       1.79049908      -0.98790706       1.26675792       0.00000000
Si      -0.11124441       0.83347786      -2.26247550       0.00000000
Si       2.01512189       2.17109864       1.92005944       0.00000000
Si       3.22144527      -1.45078741      -0.53060437       0.00000000
Si      -2.75305890      -1.96937957       1.38377545       0.00000000
Si       0.65410867      -2.57948894       2.65609588       0.00000000
Si      -2.46192401      -1.78328261      -2.25629819       0.00000000
Si      -0.64770670       0.52238772       3.76616684       0.00000000
