10
Lattice="16.2900001489832 0.0 0.0 0.0 16.2900001489832 0.0 0.0 0.0 29.27633928601476" Properties=species:S:1:pos:R:3:initial_magmoms:R:1 pbc="T T T"
Si       1.36247932       1.29650482       1.36269649       0.00000000
Si      -1.28970863       1.43255890      -1.36372116       0.00000000
Si       1.41143077      -1.33496714      -1.34779483       0.00000000
Si      -1.31041160      -1.32461485       1.49025350       0.00000000
Si      -2.63052633      -2.66617419       0.03507305       0.00000000
Si      -0.05628195       2.59299335       2.71087191       0.00000000
Si      -2.73251720       0.05911641      -2.63453093       0.00000000
Si       2.59830389      -0.14260266       2.83386181       0.00000000
Si      -2.66284487       2.78663259       0.03887898       0.00000000
Si       2.79865461      -2.68252319       0.06405663       0.00000000
