10
Lattice="16.2900001489832 0.0 0.0 0.0 16.2900001489832 0.0 0.0 0.0 29.27633928601476" Properties=species:S:1:pos:R:3:initial_magmoms:R:1 pbc="T T T"
Si       0.40215123       1.10788291      -2.05792172       0.00000000
Si      -1.05459832       1.67990627       1.30335335       0.00000000
Si      -0.81301762      -2.18571077      -0.44523457       0.00000000
Si       2.00573885      -0.69475222       1.08571304       0.00000000
Si       1.30181536      -3.10187667      -1.11007096       0.00000000
Si      -3.22370469       1.41159367       0.48560664       0.00000000
Si       3.47850147      -0.20890296      -0.75292889       0.00000000
Si       2.66282858       1.64871092      -1.84610740       0.00000000
Si       1.56988360       0.06545322       3.32992011       0.00000000
Si      -0.62051869       1.04689315       3.47630180       0.00000000
