10
Lattice="16.2900001489832 0.0 0.0 0.0 16.2900001489832 0.0 0.0 0.0 29.27633928601476" Properties=species:S:1:pos:R:3:initial_magmoms:R:1 pbc="T T T"
Si       0.56358514      -1.90457795      -1.27797076       0.00000000
Si      -1.33152832       0.73089973      -1.84373602       0.00000000
Si      -1.30217374      -0.56856988       1.93178754       0.00000000
Si       2.13486968       1.10521135       0.18505574       0.00000000
Si       1.97726393      -0.74047825      -2.84246906       0.00000000
Si       2.71482626       1.42571710      -2.09363885       0.00000000
Si      -3.35852562      -1.30790782       0.93506549       0.00000000
Si      -1.43355259      -2.55507023      -2.34884070       0.00000000
Si       0.08628813      -1.86385295       3.41348063       0.00000000
Si       1.77974768      -3.47910420      -0.00819738       0.00000000
