10
Lattice="16.2900001489832 0.0 0.0 0.0 16.2900001489832 0.0 0.0 0.0 29.27633928601476" Properties=species:S:1:pos:R:3:initial_magmoms:R:1 pbc="T T T"
Si       1.16919847       0.94449421      -0.11608069       0.00000000
H        1.41193576      -1.35928648       0.85118029       0.00000000
Si       1.09095760      -2.42426153      -0.19199423       0.00000000
Si       0.49741515       1.88859094      -2.14024678       0.00000000
Si      -2.97804009       0.40203720       0.87190794       0.00000000
Si       1.38078928       1.93051000       2.04884605       0.00000000
Si      -1.16971975      -2.96508954      -0.40380855       0.00000000
Si      -2.83069704      -1.35009892      -0.76270719       0.00000000
Si       3.23488452       0.06408486      -0.89140598       0.00000000
Si      -1.94724146      -0.08298126       2.94276980       0.00000000
