10
Lattice="16.2900001489832 0.0 0.0 0.0 16.2900001489832 0.0 0.0 0.0 29.27633928601476" Properties=species:S:1:pos:R:3:initial_magmoms:R:1 pbc="T T T"
Si      -1.40929678      -1.29767770      -1.35160076       0.00000000
Si      -1.38834784       1.36622602       1.31649842       0.00000000
Si       1.38834784       1.38380293      -1.30288493       0.00000000
Si       1.07657353      -1.60619401       1.35774879       0.00000000
Si      -2.67410126      -2.65562026       0.13171425       0.00000000
Si       2.65636145      -2.70053668       0.01861975       0.00000000
Si       0.01392795       2.44117055       2.90175364       0.00000000
Si       0.03691314       2.70972749      -2.66089720       0.00000000
Si      -0.04486266      -2.65863228      -2.72387061       0.00000000
Si      -0.82323145      -3.41378456       1.49484988       0.00000000
