10
Lattice="16.2900001489832 0.0 0.0 0.0 16.2900001489832 0.0 0.0 0.0 29.27633928601476" Properties=species:S:1:pos:R:3:initial_magmoms:R:1 pbc="T T T"
Si      -1.35143470       1.32592456      -1.35801227       0.00000000
Si       1.26076456       1.36787131       1.42306430       0.00000000
Si      -1.38834784      -1.38380293       1.30288493       0.00000000
Si       1.34503273      -1.32885676      -1.43304753       0.00000000
Si       2.67502979      -2.66036879       0.03012535       0.00000000
Si      -2.77669569      -0.01757691       2.61938335       0.00000000
Si      -0.04300560       2.70133814      -2.71387859       0.00000000
Si       2.66680334       2.75331954       0.06244643       0.00000000
Si       2.60379362      -0.00474039       2.81749634       0.00000000
Si      -0.09702324      -2.65502567      -2.80503340       0.00000000
