10
Lattice="16.2900001489832 0.0 0.0 0.0 16.2900001489832 0.0 0.0 0.0 29.27633928601476" Properties=species:S:1:pos:R:3:initial_magmoms:R:1 pbc="T T T"
Si      -1.98702164      -0.54644805       1.08887489       0.00000000
Si       0.05331717       2.34092189      -0.28181404       0.00000000
Si       0.63702046      -1.10501587      -2.02762071       0.00000000
Si       1.51681078      -0.78815908       1.72440566       0.00000000
Si       3.01277037       0.08329077      -0.09857343       0.00000000
Si       2.31836024       0.46887507      -2.32758608       0.00000000
Si      -2.58339854      -2.06167871      -0.61527155       0.00000000
Si       0.75983077       2.17766351      -2.55119876       0.00000000
Si       1.11294910       1.16828623       3.06549621       0.00000000
H       -0.55656415       1.60813252      -3.03742020       0.00000000
