10
Lattice="16.2900001489832 0.0 0.0 0.0 16.2900001489832 0.0 0.0 0.0 29.27633928601476" Properties=species:S:1:pos:R:3:initial_magmoms:R:1 pbc="T T T"
Si      -1.30842910      -1.37541358       1.35586632       0.00000000
Si       1.28640502      -1.24629904      -1.50045630       0.00000000
Si      -1.89032420       0.85734271      -1.11551050       0.00000000
Si       1.35493705       1.41796306       1.32925413       0.00000000
Si      -2.67234194       0.06374277       2.61138213       0.00000000
Si       2.71107956      -2.60855030      -0.12315385       0.00000000
Si      -2.66009186      -2.67224420      -0.05271205       0.00000000
Si       0.04300560      -2.70133814       2.71387859       0.00000000
Si       2.67415013       2.78622534      -0.12396480       0.00000000
Si       2.70980894       0.05198139       2.77632502       0.00000000
