10
Lattice="16.2900001489832 0.0 0.0 0.0 16.2900001489832 0.0 0.0 0.0 29.27633928601476" Properties=species:S:1:pos:R:3:initial_magmoms:R:1 pbc="T T T"
H        0.35176626      -0.61918291      -0.27145022       0.00000000
Si       0.78734458       0.64128844       2.52997341       0.00000000
Si       2.55943595       0.79845436       0.95759978       0.00000000
Si      -1.02615598       1.89881129      -1.97916836       0.00000000
Si      -2.22234698      -1.73952767      -0.95077839       0.00000000
Si       2.57973329      -1.54989577       1.00663765       0.00000000
Si      -1.67684375      -0.21522348      -2.69304262       0.00000000
Si       2.81359254       0.61778197      -1.41284686       0.00000000
Si      -1.93574072       2.64803726       0.13499320       0.00000000
Si       0.81322939      -1.92757943       2.68469887       0.00000000
