10
Lattice="16.2900001489832 0.0 0.0 0.0 16.2900001489832 0.0 0.0 0.0 29.27633928601476" Properties=species:S:1:pos:R:3:initial_magmoms:R:1 pbc="T T T"
Si       2.06115743      -1.16994781       0.01460889       0.00000000
Si      -1.49240836      -1.57058407       1.02748240       0.00000000
Si      -0.35033274       1.93114694       1.41548173       0.00000000
Si      -0.50793849       0.03595203      -2.37987362       0.00000000
H       -1.65895733       2.01965051      -1.05037650       0.00000000
H       -2.02035098       0.06949314      -2.61534322       0.00000000
Si      -3.41342292      -0.24943248       1.24901646       0.00000000
H        3.42865407       1.44787150       0.69472753       0.00000000
Si       1.48639735      -3.49484034      -0.18195245       0.00000000
Si       3.39923433      -0.33435225      -1.74147377       0.00000000
