10
Lattice="16.2900001489832 0.0 0.0 0.0 16.2900001489832 0.0 0.0 0.0 29.27633928601476" Properties=species:S:1:pos:R:3:initial_magmoms:R:1 pbc="T T T"
Si       1.82550629       1.31227354       0.61732089       0.00000000
Si       0.45936171      -2.11983401       1.01457154       0.00000000
Si      -2.15438999       0.79799824       0.68869661       0.00000000
Si       0.34834536      -0.05584212      -2.39530225       0.00000000
H       -0.18150318       2.47063916      -1.17201969       0.00000000
H        0.18523359       2.97212682      -1.63042861       0.00000000
Si      -1.92595369       0.14924898      -2.82867990       0.00000000
H        2.73241946       2.02157273      -0.71466472       0.00000000
Si       2.73719243      -2.18098667       0.69200483       0.00000000
Si      -2.96173380       1.63929530      -1.37789091       0.00000000
