10
Lattice="16.2900001489832 0.0 0.0 0.0 16.2900001489832 0.0 0.0 0.0 29.27633928601476" Properties=species:S:1:pos:R:3:initial_magmoms:R:1 pbc="T T T"
Si      -2.25642566      -0.77294422      -0.16166395       0.00000000
Si       0.22843467       2.39591693      -0.19313601       0.00000000
Si       0.90958474      -0.74922598      -2.11416157       0.00000000
Si       0.94125250      -0.39669408       2.24792516       0.00000000
H       -2.43714692       1.01871145       1.88202947       0.00000000
H        1.93574072      -2.64803726      -0.13499320       0.00000000
Si      -3.07209855       1.08466966      -1.25484245       0.00000000
H       -2.75112039       2.14964471      -0.21166793       0.00000000
Si       2.55423944       2.51967206      -0.56889783       0.00000000
Si      -0.12566106       3.10190925       2.05361810       0.00000000
