10
Lattice="16.2900001489832 0.0 0.0 0.0 16.2900001489832 0.0 0.0 0.0 29.27633928601476" Properties=species:S:1:pos:R:3:initial_magmoms:R:1 pbc="T T T"
Si       0.76696579       2.15909291       0.62589886       0.00000000
Si      -1.15209397      -1.26750862       1.66793160       0.00000000
Si       1.78183280      -1.61005474       0.14705505       0.00000000
Si      -0.94125250       0.39669408      -2.24792516       0.00000000
H        2.90054856       0.60711202      -1.09341272       0.00000000
H       -2.66450645      -1.23396751       1.43246200       0.00000000
Si      -0.47185614      -3.31151268       0.70479859       0.00000000
H        0.99448822      -2.25134318      -2.38291836       0.00000000
Si       2.67797828       2.11294334      -0.85123884       0.00000000
Si      -1.06691356       3.49860333      -0.19430706       0.00000000
