10
Lattice="16.2900001489832 0.0 0.0 0.0 16.2900001489832 0.0 0.0 0.0 29.27633928601476" Properties=species:S:1:pos:R:3:initial_magmoms:R:1 pbc="T T T"
Si       2.32580477       0.12375513      -0.37576181       0.00000000
Si      -0.35409573       0.70599232       2.24675411       0.00000000
Si      -1.15660630       1.17709912      -1.76111819       0.00000000
Si      -0.22843467      -2.39591693       0.19313601       0.00000000
H       -2.97955506      -0.24627222      -0.01853192       0.00000000
Si       1.47978361      -0.63351811       3.06696003       0.00000000
H       -0.77263471       3.28347270      -0.91997969       0.00000000
Si      -2.01481238      -0.63467470      -2.91715300       0.00000000
H       -2.66558159      -1.37720548       2.07516548       0.00000000
Si      -3.30053322      -1.31124727      -1.06170644       0.00000000
