10
Lattice="16.2900001489832 0.0 0.0 0.0 16.2900001489832 0.0 0.0 0.0 29.27633928601476" Properties=species:S:1:pos:R:3:initial_magmoms:R:1 pbc="T T T"
Si      -2.01640880      -1.10768254      -0.00810955       0.00000000
Si      -0.65857213       1.57605914       1.61283353       0.00000000
Si       1.82242748      -1.27512762       0.78978780       0.00000000
Si       0.14404584       0.60924763      -2.33964793       0.00000000
H       -2.09710946       2.24491026       1.12222064       0.00000000
Si       3.22390506       0.56384740       1.28537768       0.00000000
Si       2.28130049      -2.53842022      -1.22158453       0.00000000
Si       0.61015336       3.48167965       0.95950274       0.00000000
Si      -3.61980093       0.63664741      -0.26293080       0.00000000
Si      -1.80781535      -2.66965247      -1.79177052       0.00000000
