10
Lattice="16.2900001489832 0.0 0.0 0.0 16.2900001489832 0.0 0.0 0.0 29.27633928601476" Properties=species:S:1:pos:R:3:initial_magmoms:R:1 pbc="T T T"
Si       1.03578011      -1.49004631      -1.45078899       0.00000000
Si      -2.20594295      -0.27523584      -0.71258610       0.00000000
Si       0.05199768       2.13280085      -0.98915968       0.00000000
Si       0.80734381      -0.84129706       2.06658751       0.00000000
H       -0.32755932       1.62023599      -2.38973975       0.00000000
H        2.78023062       0.83134387       0.20587122       0.00000000
H        3.14696739       1.33283152      -0.25253770       0.00000000
H        0.91762060       3.03409398       1.33728463       0.00000000
H       -1.89991901      -2.07806645       2.22930541       0.00000000
Si       2.96173380      -1.63929530       1.37789091       0.00000000
