10
Lattice="16.2900001489832 0.0 0.0 0.0 16.2900001489832 0.0 0.0 0.0 29.27633928601476" Properties=species:S:1:pos:R:3:initial_magmoms:R:1 pbc="T T T"
Si       0.05603760       1.30362355      -0.84552995       0.00000000
Si       1.89443579      -1.85846096       0.33486277       0.00000000
Si      -0.51681654      -0.42484320       2.90611582       0.00000000
Si       2.37504944      -0.70403752      -1.72891422       0.00000000
Si       0.58360555       0.48400848      -3.06221726       0.00000000
Si       1.91393004       2.55751373      -0.16274717       0.00000000
Si      -1.87839992       2.55518426      -0.42316021       0.00000000
Si      -1.94670389      -2.72256401      -0.18160113       0.00000000
Si       1.87775483      -0.92424574       2.64874752       0.00000000
Si      -2.81114904      -0.98363908      -1.63681085       0.00000000
