10
Lattice="16.2900001489832 0.0 0.0 0.0 16.2900001489832 0.0 0.0 0.0 29.27633928601476" Properties=species:S:1:pos:R:3:initial_magmoms:R:1 pbc="T T T"
H       -0.35176626       0.61918291       0.27145022       0.00000000
Si       2.22796703      -0.93071287       1.27808787       0.00000000
Si       2.33210900      -1.17577963      -1.14944763       0.00000000
Si      -2.57411324      -1.12034476      -0.67932818       0.00000000
Si       2.20766969       1.41763726       1.22905000       0.00000000
Si       2.46182627       1.23696487      -1.14139664       0.00000000
Si      -1.01558377      -2.82913320      -0.45571550       0.00000000
Si       0.43557831       1.26047134       2.80142363       0.00000000
Si      -2.02861001       0.40395942      -2.42159240       0.00000000
Si       0.46146312      -1.30839652       2.95614908       0.00000000
