10
Lattice="16.2900001489832 0.0 0.0 0.0 16.2900001489832 0.0 0.0 0.0 29.27633928601476" Properties=species:S:1:pos:R:3:initial_magmoms:R:1 pbc="T T T"
Si       1.93443752      -1.25156071      -0.42236975       0.00000000
Si      -0.08412156       0.76677031       2.22102020       0.00000000
Si      -1.67529620      -1.65537353       0.06610597       0.00000000
Si      -1.98166223       0.26427267      -1.46361203       0.00000000
H        1.87839992      -2.55518426       0.42316021       0.00000000
Si      -1.88517656       2.67055004      -0.91236784       0.00000000
Si       1.49130064      -0.56728297       3.33732702       0.00000000
Si      -2.34844787       0.71374636       2.77100551       0.00000000
Si       3.79232995       0.00232947       0.26041304       0.00000000
Si       0.11158650       3.81316323       0.05120432       0.00000000
