10
Lattice="16.2900001489832 0.0 0.0 0.0 16.2900001489832 0.0 0.0 0.0 29.27633928601476" Properties=species:S:1:pos:R:3:initial_magmoms:R:1 pbc="T T T"
Si      -1.57542220       1.33405327      -1.11630682       0.00000000
Si      -0.25415658       0.18067239       2.37044664       0.00000000
Si       2.19390301       0.71117254      -0.70090484       0.00000000
Si      -0.12971727      -2.41274450      -0.00805099       0.00000000
H       -2.46182627      -1.23696487       1.14139664       0.00000000
H       -2.81359254      -0.61778197       1.41284686       0.00000000
Si      -0.23385924      -2.16767774       2.41948451       0.00000000
H        0.38709927      -1.98790130      -2.91416681       0.00000000
H       -0.90753220       2.24067323       2.70235250       0.00000000
Si       2.26485411      -2.91214704      -0.26541929       0.00000000
