10
Lattice="16.2900001489832 0.0 0.0 0.0 16.2900001489832 0.0 0.0 0.0 29.27633928601476" Properties=species:S:1:pos:R:3:initial_magmoms:R:1 pbc="T T T"
H       -0.65337562       2.06000084       0.33190586       0.00000000
Si       1.74013365       0.92106919       1.26017075       0.00000000
Si       0.02029734      -2.34835013       0.04903787       0.00000000
Si      -1.77209138      -0.15716592       1.57237363       0.00000000
Si       0.25415658      -0.18067239      -2.37044664       0.00000000
H       -2.55943595      -0.79845436      -0.95759978       0.00000000
H       -2.20766969      -1.41763726      -1.22905000       0.00000000
H        0.92795986       1.67479121       2.29526500       0.00000000
H        0.73358758      -2.11240577       2.04132203       0.00000000
Si       0.12443931      -2.59341689      -2.37849763       0.00000000
