10
Lattice="16.2900001489832 0.0 0.0 0.0 16.2900001489832 0.0 0.0 0.0 29.27633928601476" Properties=species:S:1:pos:R:3:initial_magmoms:R:1 pbc="T T T"
H       -0.30937968      -0.33023088       1.45810808       0.00000000
Si      -0.33879942      -2.11245464      -0.97809322       0.00000000
Si       2.29315961       0.59328181       0.05389774       0.00000000
Si      -1.51690852       1.80996563      -0.44312667       0.00000000
H        1.38800575      -0.25273935      -2.41447825       0.00000000
Si       2.27313594       0.40410603       2.43377136       0.00000000
Si      -1.67687633      -2.94805020       0.77798944       0.00000000
Si       2.08779647       2.62878248      -1.23534441       0.00000000
H        2.43881339      -2.62607834       1.05860315       0.00000000
Si      -0.24749397      -2.67001247       2.63554389       0.00000000
