10
Lattice="16.2900001489832 0.0 0.0 0.0 16.2900001489832 0.0 0.0 0.0 29.27633928601476" Properties=species:S:1:pos:R:3:initial_magmoms:R:1 pbc="T T T"
H       -1.50856804       0.05970285       0.10937640       0.00000000
Si       0.58942108       2.20968965       0.39777762       0.00000000
Si       0.14643081      -0.20883780      -2.49144575       0.00000000
Si       0.62019289      -1.09343368       2.18591787       0.00000000
H       -2.23914197      -0.22476942       2.18334155       0.00000000
Si       0.29372499      -3.09233073      -0.98637842       0.00000000
Si      -1.61728750      -3.04618116       0.49075928       0.00000000
Si       2.57177157      -2.31963086      -0.47354479       0.00000000
Si       2.57205407       2.18546642       1.63804046       0.00000000
Si      -0.77126635      -2.28890792      -2.95196257       0.00000000
