10
Lattice="16.2900001489832 0.0 0.0 0.0 16.2900001489832 0.0 0.0 0.0 29.27633928601476" Properties=species:S:1:pos:R:3:initial_magmoms:R:1 pbc="T T T"
Si       1.28932093      -1.39278198      -1.37799431       0.00000000
Si       1.60305004       1.19479006       1.30204083       0.00000000
Si      -1.27969354      -1.59941086       1.30585261       0.00000000
Si      -0.74240047       1.82628821      -1.46394964       0.00000000
Si      -2.54739764      -0.13235625       2.65747679       0.00000000
Si       0.21769956       2.61545726       2.62547775       0.00000000
H        0.71905690       0.69993244      -3.66678924       0.00000000
Si      -2.59198337       2.79971346      -0.29450627       0.00000000
Si       2.15759423       0.03108132      -3.17617635       0.00000000
Si       0.22214673      -2.82873588       2.68493799       0.00000000
