10
Lattice="16.2900001489832 0.0 0.0 0.0 16.2900001489832 0.0 0.0 0.0 29.27633928601476" Properties=species:S:1:pos:R:3:initial_magmoms:R:1 pbc="T T T"
Si      -1.31615056      -0.94073122       1.67648029       0.00000000
Si      -1.83883151      -0.60242050      -1.32340764       0.00000000
Si       1.17460675       1.90887851       0.71917327       0.00000000
Si       1.83554093      -1.49793067      -0.24234954       0.00000000
Si      -0.42007023      -1.89890903      -2.67158307       0.00000000
Si       2.40756428      -1.58162869       1.98654600       0.00000000
Si       1.59967801       2.83872801      -1.38093565       0.00000000
Si       0.45657612      -1.30059361       3.27681283       0.00000000
Si       0.81575434      -3.33801651      -1.20041774       0.00000000
Si       3.14647869       0.75440620       1.69296287       0.00000000
