10
Lattice="16.2900001489832 0.0 0.0 0.0 16.2900001489832 0.0 0.0 0.0 29.27633928601476" Properties=species:S:1:pos:R:3:initial_magmoms:R:1 pbc="T T T"
Si       1.18364770      -1.86846302       0.77585227       0.00000000
Si      -1.06093024       1.44350578       1.51507983       0.00000000
Si      -1.76285495      -0.95837329      -1.28678294       0.00000000
Si       1.20669805       1.04940181      -1.77183333       0.00000000
H        0.16793361      -0.45023931       3.08326695       0.00000000
H       -3.30659310      -0.16283484       0.94606490       0.00000000
Si       0.76690063      -3.28510659      -1.04121301       0.00000000
H       -0.19880316      -0.95172697       3.54167587       0.00000000
Si      -2.30004702       2.87064012       0.16491362       0.00000000
Si      -2.92703610       0.34973001       2.34664498       0.00000000
