10
Lattice="16.2900001489832 0.0 0.0 0.0 16.2900001489832 0.0 0.0 0.0 29.27633928601476" Properties=species:S:1:pos:R:3:initial_magmoms:R:1 pbc="T T T"
Si       1.43853733      -0.66885112       0.49061289       0.00000000
Si      -1.71476687       0.45092349      -0.05495169       0.00000000
Si      -1.52269147      -1.60826284      -1.38515144       0.00000000
Si      -1.46145736       1.12635577       2.20283960       0.00000000
Si       2.70726282       1.23676939      -0.16271789       0.00000000
Si       0.57026404      -2.09271442       2.28879493       0.00000000
Si       2.09710946      -2.24491026      -1.12222064       0.00000000
Si      -1.87291019       2.46529604      -1.36919584       0.00000000
Si      -0.30602394       1.80283061      -2.94189151       0.00000000
Si      -1.10416879      -0.36952236      -3.31595529       0.00000000
