10
Lattice="16.2900001489832 0.0 0.0 0.0 16.2900001489832 0.0 0.0 0.0 29.27633928601476" Properties=species:S:1:pos:R:3:initial_magmoms:R:1 pbc="T T T"
Si       1.27702198       1.42638499      -1.39191428       0.00000000
Si      -1.31092147      -1.37160172      -1.42526003       0.00000000
Si      -1.97166017       0.78100777       1.13191111       0.00000000
Si       1.95875849      -0.77506192       1.19549931       0.00000000
Si       2.63230112       2.72733698       0.02725627       0.00000000
Si       2.75468790      -2.61703739      -0.10583397       0.00000000
Si      -2.73858360      -2.65538405      -0.01469672       0.00000000
Si      -1.38712609       1.46412892       3.24724372       0.00000000
Si       2.62925489       0.08459397      -2.78432625       0.00000000
Si      -2.68426297       0.02031363      -2.80599074       0.00000000
