10
Lattice="16.2900001489832 0.0 0.0 0.0 16.2900001489832 0.0 0.0 0.0 29.27633928601476" Properties=species:S:1:pos:R:3:initial_magmoms:R:1 pbc="T T T"
Si       1.34793235       1.34229601       1.38870559       0.00000000
Si      -1.44666604       1.37182978      -1.32542771       0.00000000
Si       1.24797691      -1.44264241      -1.45277978       0.00000000
Si      -1.35986966      -1.39395160       1.43950004       0.00000000
Si      -0.80837497      -2.18198036      -2.44950183       0.00000000
Si      -2.54105106      -0.30503025      -2.55215200       0.00000000
Si       2.63643878      -2.73792549       0.02891331       0.00000000
Si       2.74885608       2.68563458      -0.08276714       0.00000000
Si       2.60141528       0.01211976       2.85357650       0.00000000
Si      -0.04759938       2.65054592       2.83478109       0.00000000
