10
Lattice="16.2900001489832 0.0 0.0 0.0 16.2900001489832 0.0 0.0 0.0 29.27633928601476" Properties=species:S:1:pos:R:3:initial_magmoms:R:1 pbc="T T T"
Si      -1.09438502      -1.67686004      -1.22672429       0.00000000
Si      -1.38194587       1.33130026       1.36161034       0.00000000
Si       1.44666604      -1.37182978       1.32542771       0.00000000
Si       1.15038352       1.48994857      -1.52235793       0.00000000
Si       1.14057694       0.17961354      -3.47008351       0.00000000
Si       0.63829108      -3.55381014      -1.12407412       0.00000000
Si       0.04352036       2.65082285       2.75087510       0.00000000
Si      -2.71542899      -0.04567716       2.73691029       0.00000000
Si      -2.62695800      -2.82087417       0.12156414       0.00000000
Si      -2.74313829       2.71049312      -0.06534479       0.00000000
