10
Lattice="16.2900001489832 0.0 0.0 0.0 16.2900001489832 0.0 0.0 0.0 29.27633928601476" Properties=species:S:1:pos:R:3:initial_magmoms:R:1 pbc="T T T"
Si      -1.67301885       1.35040843      -0.83964541       0.00000000
Si      -0.09040787       0.05927931       2.36034630       0.00000000
Si      -0.47853993      -2.10735587      -0.96527018       0.00000000
Si       1.87447077       1.37055916      -0.54208070       0.00000000
H       -1.12220671       1.68290363      -2.21621888       0.00000000
Si       3.53544805      -0.24443145      -0.18318205       0.00000000
Si       1.72712772       3.12269529       1.09253443       0.00000000
Si       2.07869850       0.32759190       3.17809301       0.00000000
Si      -2.67244294      -2.81852841      -0.26436534       0.00000000
Si       3.13329682      -1.35231436       1.87473966       0.00000000
