10
Lattice="16.2900001489832 0.0 0.0 0.0 16.2900001489832 0.0 0.0 0.0 29.27633928601476" Properties=species:S:1:pos:R:3:initial_magmoms:R:1 pbc="T T T"
Si       1.34615674       1.27577417       1.48229033       0.00000000
Si      -0.95247631      -1.87686214       1.12500189       0.00000000
Si      -2.10745035       1.06043666      -0.48765598       0.00000000
Si       1.29977911      -0.25026653      -2.25328273       0.00000000
Si      -2.28264604      -2.55721400      -0.75805225       0.00000000
Si       2.99126757      -1.53408796      -1.15527362       0.00000000
Si      -0.20111634       2.45451858       2.72261172       0.00000000
Si      -1.37358422       2.32103832      -2.50031648       0.00000000
Si       0.29463723       3.55349086      -1.18223713       0.00000000
Si       2.06736392       3.19362847       0.41809540       0.00000000
