10
Lattice="16.2900001489832 0.0 0.0 0.0 16.2900001489832 0.0 0.0 0.0 29.27633928601476" Properties=species:S:1:pos:R:3:initial_magmoms:R:1 pbc="T T T"
Si      -1.09605800      -1.77606614       1.00590574       0.00000000
Si      -1.43409096       1.64139671       0.83264837       0.00000000
Si       2.16910637       0.26831259       0.81774671       0.00000000
Si       0.09040787      -0.05927931      -2.36034630       0.00000000
H       -1.90823179      -1.02234412       2.04099999       0.00000000
Si      -0.38955418       3.38973726      -0.39054637       0.00000000
H       -3.48956727      -0.63713449       0.07764085       0.00000000
Si       3.22370469      -1.41159367      -0.48560664       0.00000000
Si       1.96487864       1.31127985      -2.90242700       0.00000000
Si       1.81753559       3.06341598      -1.26781187       0.00000000
