10
Lattice="16.2900001489832 0.0 0.0 0.0 16.2900001489832 0.0 0.0 0.0 29.27633928601476" Properties=species:S:1:pos:R:3:initial_magmoms:R:1 pbc="T T T"
Si      -0.14807610      -0.75473200      -2.19626091       0.00000000
Si       2.05635188       0.73933795       0.99672205       0.00000000
Si      -0.63019495      -1.99124075       1.18777651       0.00000000
Si      -1.73267609       1.87695011      -0.10265016       0.00000000
Si      -1.94925353      -0.65300095       2.60741548       0.00000000
Si       0.80837497       2.18198036       2.44950183       0.00000000
Si      -3.26524908       0.73293598       1.24563827       0.00000000
Si      -1.63519999      -2.60529230      -2.07587660       0.00000000
Si       3.35852562       1.30790782      -0.93506549       0.00000000
Si      -0.63829108       3.55381014       1.12407412       0.00000000
