10
Lattice="16.28999089631971 0.0 0.0 0.0 16.28999089631971 0.0 0.0 0.0 34.54679606040008" Properties=species:S:1:pos:R:3:initial_magmoms:R:1 pbc="T T T"
Si      -1.33934425      -1.34138635       1.37840757       0.00000000
Si       1.37888334       1.36641957       1.37305281       0.00000000
Si       1.18174176      -1.56563449      -1.35021391       0.00000000
Si      -1.30168014       1.40338158      -1.49274716       0.00000000
Si       2.23676361       0.08122670      -2.63764555       0.00000000
Si       0.65583540       2.10222909      -2.73716979       0.00000000
Si      -2.70181772      -2.69785465       0.02836639       0.00000000
Si      -2.69028440       2.72887281      -0.01199465       0.00000000
Si      -2.69696330       0.00938045       2.73502646       0.00000000
Si       0.01791900      -2.70490822       2.73336821       0.00000000
