10
Lattice="16.28999089631971 0.0 0.0 0.0 16.28999089631971 0.0 0.0 0.0 34.54679606040008" Properties=species:S:1:pos:R:3:initial_magmoms:R:1 pbc="T T T"
Si       1.36225125       1.35491098      -1.35051793       0.00000000
Si       1.35581670      -1.35707312       1.36059178       0.00000000
Si      -1.36226754       1.35838075       1.36048814       0.00000000
Si      -1.37888334      -1.36641957      -1.37305281       0.00000000
Si      -0.04059468       2.60788891      -2.70391360       0.00000000
Si       2.57660559      -0.09913605      -2.76853342       0.00000000
Si      -2.71822759      -2.70780592       0.00535476       0.00000000
Si       2.71502172      -2.71381693       0.00245282       0.00000000
Si       2.71505430       2.71517485       0.00390379       0.00000000
Si       2.71267596       0.00127225       2.71810889       0.00000000
