10
Lattice="16.28999089631971 0.0 0.0 0.0 16.28999089631971 0.0 0.0 0.0 34.54679606040008" Properties=species:S:1:pos:R:3:initial_magmoms:R:1 pbc="T T T"
Si      -1.35369900       1.35604476      -1.35813895       0.00000000
Si      -1.35607734      -1.35785784       1.35606614       0.00000000
Si       1.35879777       1.35760860       1.35578977       0.00000000
Si       1.35765747      -1.35798164      -1.36466830       0.00000000
Si      -2.70650205      -0.00421911      -2.71256067       0.00000000
Si      -2.71412577       2.71251306      -0.00103640       0.00000000
Si      -2.71358820      -0.00022806       2.71334143       0.00000000
Si       0.00071676       2.71513575       2.71351416       0.00000000
Si      -2.71293660      -2.71620321      -0.00145097       0.00000000
Si       0.00140094      -2.71550071       2.71379053       0.00000000
