10
Lattice="16.28999089631971 0.0 0.0 0.0 16.28999089631971 0.0 0.0 0.0 34.54679606040008" Properties=species:S:1:pos:R:3:initial_magmoms:R:1 pbc="T T T"
Si      -1.35785295      -1.35654833       1.35782803       0.00000000
Si       1.35685926       1.35834537       1.35751711       0.00000000
Si      -1.35581670       1.35707312      -1.36059178       0.00000000
Si       1.35920502      -1.35674381      -1.35813895       0.00000000
Si       0.00643455       2.71198410      -2.71110970       0.00000000
Si       2.71288773      -2.71529723       0.00086367       0.00000000
Si      -0.00061902      -2.71384742       2.71503422       0.00000000
Si       2.71293660       2.71620321       0.00145097       0.00000000
Si       2.71433754       0.00070250       2.71524150       0.00000000
Si      -0.00065160       2.71597515       2.71479239       0.00000000
