10
Lattice="16.28999089631971 0.0 0.0 0.0 16.28999089631971 0.0 0.0 0.0 34.54679606040008" Properties=species:S:1:pos:R:3:initial_magmoms:R:1 pbc="T T T"
Si      -1.82532708      -0.77877603       1.20060547       0.00000000
Si      -0.86644881       1.52453223      -1.55281026       0.00000000
Si       0.69361191      -1.85065803      -1.26199517       0.00000000
Si       1.17594252       0.90090216       1.83795967       0.00000000
Si      -2.09727234      -0.08518041      -2.74018430       0.00000000
Si      -2.86510149       1.38034944       1.56928909       0.00000000
Si      -0.61195014      -2.04097410       2.84821219       0.00000000
Si       2.82711321      -1.26913761      -1.91993926       0.00000000
Si      -0.56166291      -1.73001429      -3.20539172       0.00000000
Si       1.06241751       2.31682896      -2.69268243       0.00000000
