10
Lattice="16.28999089631971 0.0 0.0 0.0 16.28999089631971 0.0 0.0 0.0 34.54679606040008" Properties=species:S:1:pos:R:3:initial_magmoms:R:1 pbc="T T T"
Si      -1.50112350       0.61861275      -1.66688384       0.00000000
Si       2.18737233      -0.17301609      -0.87199617       0.00000000
Si       0.41228361       1.57240854       1.76831329       0.00000000
Si      -0.80871705      -1.98975019       1.09793234       0.00000000
Si      -0.60558075      -0.27230364       2.95295814       0.00000000
Si      -2.46824451      -1.25095797      -2.64006763       0.00000000
Si       3.71669382       0.39174192       0.86114847       0.00000000
Si       2.45687409      -2.11383112      -2.20671238       0.00000000
Si       2.74497903       1.72630017      -2.24606120       0.00000000
Si      -3.56744484       1.51053912      -0.82176510       0.00000000
