10
Lattice="16.28999089631971 0.0 0.0 0.0 16.28999089631971 0.0 0.0 0.0 34.54679606040008" Properties=species:S:1:pos:R:3:initial_magmoms:R:1 pbc="T T T"
Si      -1.03140135      -1.64750544       1.31793993       0.00000000
Si       1.72331910       1.09737585       1.21734306       0.00000000
Si      -1.81185525       1.63501101      -0.12015214       0.00000000
Si       0.18388152      -1.73273472      -1.77888293       0.00000000
Si       1.85437215       0.92595618      -2.65737390       0.00000000
Si      -0.21533751      -0.02277342      -3.41412189       0.00000000
Si      -2.32837857       0.58288878      -2.47710861       0.00000000
Si      -2.36161017      -0.19935702       2.66218416       0.00000000
Si       0.37554966       2.53913859       2.63672661       0.00000000
Si      -1.71385461      -3.51958482      -0.08836907       0.00000000
