10
Lattice="16.28999089631971 0.0 0.0 0.0 16.28999089631971 0.0 0.0 0.0 34.54679606040008" Properties=species:S:1:pos:R:3:initial_magmoms:R:1 pbc="T T T"
Si       1.34542368      -1.28642130       1.44392906       0.00000000
Si      -1.72331910      -1.09737585      -1.21734306       0.00000000
Si       1.75705569       0.71071641      -1.50781100       0.00000000
Si      -1.34776944       1.44176274       1.41938355       0.00000000
Si       2.71876842      -2.58678684       0.03052902       0.00000000
Si      -3.53517435       0.53763516      -1.33749520       0.00000000
Si      -2.79135666       2.61513144      -0.10521578       0.00000000
Si       0.00092853      -2.63759535       2.80841426       0.00000000
Si       0.13105305      -0.17141967      -3.87471696       0.00000000
Si      -2.75472045      -2.74488129       0.10059687       0.00000000
