10
Lattice="16.28999089631971 0.0 0.0 0.0 16.28999089631971 0.0 0.0 0.0 34.54679606040008" Properties=species:S:1:pos:R:3:initial_magmoms:R:1 pbc="T T T"
Si       1.35661491       1.35677781      -1.35699891       0.00000000
Si      -1.35824391      -1.35751086      -1.35672253       0.00000000
Si       1.35692442      -1.35762489       1.35803531       0.00000000
Si      -1.36114353       1.35775521       1.35851897       0.00000000
Si       2.71213839      -2.71588509       0.00048366       0.00000000
Si       2.71419093      -0.00035838      -2.71461966       0.00000000
Si      -0.00073305       2.71441899      -2.71458511       0.00000000
Si       2.71430496       2.71573848      -0.00034547       0.00000000
Si      -0.00110772      -2.71546155      -2.71465420       0.00000000
Si      -2.71484090       2.71534752      -0.00076003       0.00000000
