10
Lattice="16.28999089631971 0.0 0.0 0.0 16.28999089631971 0.0 0.0 0.0 34.54679606040008" Properties=species:S:1:pos:R:3:initial_magmoms:R:1 pbc="T T T"
Si       1.26203517       0.97094916       1.70163794       0.00000000
Si       0.77121747      -2.17828251      -0.37694030       0.00000000
Si      -2.15769195      -0.49127382       0.96717264       0.00000000
Si       0.73326177       1.45034757      -1.80272192       0.00000000
Si      -0.04955418      -3.25058805       1.60649601       0.00000000
Si       1.13572251       3.30374232       1.02051293       0.00000000
Si      -3.26982654      -1.69883523      -0.64561089       0.00000000
Si      -1.10087820       2.84874633      -2.16691445       0.00000000
Si       3.45851361       0.09602955       1.50354650       0.00000000
Si      -0.40472505      -3.07918467      -2.21489997       0.00000000
