10
Lattice="16.28999089631971 0.0 0.0 0.0 16.28999089631971 0.0 0.0 0.0 34.54679606040008" Properties=species:S:1:pos:R:3:initial_magmoms:R:1 pbc="T T T"
Si       0.40438296       1.74228066      -1.48005466       0.00000000
Si       1.49851710      -1.79185113      -0.41183259       0.00000000
Si      -2.06970966      -0.94872960      -0.75674799       0.00000000
Si       1.62600264       0.88213608       2.36690596       0.00000000
Si      -1.67049063      -2.65869090       0.87849097       0.00000000
Si      -1.85437215      -0.92595618       2.65737390       0.00000000
Si       2.50791066       2.54674602      -0.72282302       0.00000000
Si       0.48065274      -3.63656331       0.77281226       0.00000000
Si      -0.13105305       0.17141967       3.87471696       0.00000000
Si       3.87363168      -1.05220368      -0.23408922       0.00000000
