10
Lattice="16.28999089631971 0.0 0.0 0.0 16.28999089631971 0.0 0.0 0.0 34.54679606040008" Properties=species:S:1:pos:R:3:initial_magmoms:R:1 pbc="T T T"
Si       1.31953887       1.59224976      -1.18336661       0.00000000
Si      -1.69194456      -1.23043257      -1.18426483       0.00000000
Si       1.61101584      -0.78701877       1.68405361       0.00000000
Si       0.92566296       1.55688417       2.07636724       0.00000000
Si      -2.42994672       0.06566499       2.39875813       0.00000000
Si       2.57838120      -2.27225952       0.02300818       0.00000000
Si      -0.19246635      -2.55047643      -2.59450038       0.00000000
Si       2.55362040       0.17013276      -2.60286071       0.00000000
Si      -0.17293464       2.85619086      -2.60064971       0.00000000
Si      -2.95165026      -2.47202379       0.42185116       0.00000000
