10
Lattice="16.28999089631971 0.0 0.0 0.0 16.28999089631971 0.0 0.0 0.0 34.54679606040008" Properties=species:S:1:pos:R:3:initial_magmoms:R:1 pbc="T T T"
Si       1.51936830      -0.99245196       1.46709961       0.00000000
Si      -1.35379674      -1.76642244      -0.73353253       0.00000000
Si       1.53134145       1.08269856      -1.47950191       0.00000000
Si      -2.08823139       1.15100253       0.19950786       0.00000000
Si      -2.44121940       0.07464078      -2.07920008       0.00000000
Si       2.89261530      -2.07133866      -0.24286411       0.00000000
Si      -2.65075767      -2.17329777       1.18723586       0.00000000
Si       2.10737214       3.01198842      -0.26065572       0.00000000
Si      -3.34475728       0.00788436       1.84324533       0.00000000
Si       2.67431301       0.61936209       2.68456393       0.00000000
