10
Lattice="16.28999089631971 0.0 0.0 0.0 16.28999089631971 0.0 0.0 0.0 34.54679606040008" Properties=species:S:1:pos:R:3:initial_magmoms:R:1 pbc="T T T"
Si       1.83413997      -1.39839876       0.36419253       0.00000000
Si      -2.09595285      -1.04702346      -0.33700418       0.00000000
Si       0.90919377       1.23531957      -1.81626427       0.00000000
Si       0.18239913       1.19203704       2.12051807       0.00000000
Si       2.06413848       2.84713362      -0.59879995       0.00000000
Si       0.62765370       3.33497025       1.26541530       0.00000000
Si       1.10087820      -2.84874633       2.16691445       0.00000000
Si       3.55152951       0.04267980       1.28424331       0.00000000
Si      -3.39376086      -0.60328386       1.57060187       0.00000000
Si      -3.26093220       0.05447376      -2.09612802       0.00000000
