10
Lattice="16.28999089631971 0.0 0.0 0.0 16.28999089631971 0.0 0.0 0.0 34.54679606040008" Properties=species:S:1:pos:R:3:initial_magmoms:R:1 pbc="T T T"
Si       1.48370949       0.97116256      -1.49750081       0.00000000
Si      -0.86775201      -2.01341698      -0.81599578       0.00000000
Si      -1.33042059       1.94766661       0.11476452       0.00000000
Si       0.82663605      -0.45187646       2.20481230       0.00000000
Si      -2.35975311       1.38142621       2.21493452       0.00000000
Si       0.42253002      -3.50439181       0.46392918       0.00000000
Si      -2.57966811       1.79152696      -1.91938651       0.00000000
Si      -0.41765931       1.15471828       3.55638736       0.00000000
Si       0.38450916       3.73265965       0.32080173       0.00000000
Si      -3.13096732      -2.09030578       0.14495844       0.00000000
