10
Lattice="16.28999089631971 0.0 0.0 0.0 16.28999089631971 0.0 0.0 0.0 34.54679606040008" Properties=species:S:1:pos:R:3:initial_magmoms:R:1 pbc="T T T"
Si       1.35723393      -1.35729909       1.35720619       0.00000000
Si       1.35785295       1.35654833      -1.35782803       0.00000000
Si      -1.35808101       1.35769220       1.35730983       0.00000000
Si      -1.35892809      -1.35770634      -1.35810441       0.00000000
Si      -0.00027693       2.71333638       2.71344507       0.00000000
Si      -2.71619134       0.00581553      -2.71306505       0.00000000
Si       2.71515204      -0.00087966       2.71444692       0.00000000
Si       2.71471221       2.71489370      -0.00031092       0.00000000
Si      -2.71536055       0.00021177       2.71458511       0.00000000
Si       2.71497285      -2.71500543      -0.00024183       0.00000000
