10
Lattice="16.28999089631971 0.0 0.0 0.0 16.28999089631971 0.0 0.0 0.0 34.54679606040008" Properties=species:S:1:pos:R:3:initial_magmoms:R:1 pbc="T T T"
Si       1.35788553       1.35006633       1.36643019       0.00000000
Si      -1.35966114      -1.36374830       1.36225002       0.00000000
Si       1.38145716      -1.38930405      -1.32980365       0.00000000
Si      -1.35317772       1.40108661      -1.40910587       0.00000000
Si      -2.40937245      -0.41892993      -2.50966549       0.00000000
Si       2.47982670       0.00346977      -2.78027385       0.00000000
Si       2.72391606       2.70000234      -0.02490825       0.00000000
Si      -2.72652246       2.70145215       0.00429417       0.00000000
Si      -0.00071676       2.70806589       2.72450005       0.00000000
Si       2.71487511      -0.00529425       2.72626193       0.00000000
