10
Lattice="16.28999089631971 0.0 0.0 0.0 16.28999089631971 0.0 0.0 0.0 34.54679606040008" Properties=species:S:1:pos:R:3:initial_magmoms:R:1 pbc="T T T"
Si      -2.13350130      -0.58152042       0.65794410       0.00000000
Si       1.10995173       0.14323797       2.03159457       0.00000000
Si       1.29160152      -1.40482191      -1.37489416       0.00000000
Si      -0.53183592       1.68313167      -1.55667950       0.00000000
Si       2.56168395      -2.55738437       0.30276829       0.00000000
Si       1.62667053       2.09987874      -2.48439968       0.00000000
Si      -2.82711321       1.26913761       1.91993926       0.00000000
Si       0.22154400      -1.69786923       3.22653437       0.00000000
Si      -3.38877612      -0.46087668      -1.28545245       0.00000000
Si      -2.09276001       0.50420808      -3.03942882       0.00000000
