10
Lattice="16.28999089631971 0.0 0.0 0.0 16.28999089631971 0.0 0.0 0.0 34.54679606040008" Properties=species:S:1:pos:R:3:initial_magmoms:R:1 pbc="T T T"
Si      -1.35879777      -1.35760860      -1.35578977       0.00000000
Si       1.35780408       1.35622395      -1.35820805       0.00000000
Si      -1.35808101       1.35752715       1.35772439       0.00000000
Si       1.35824391      -1.35793440       1.35786258       0.00000000
Si      -2.71249677      -0.00156384      -2.71392872       0.00000000
Si      -2.71474479       2.71463076       0.00020728       0.00000000
Si       0.00166158      -2.71463076       2.71496513       0.00000000
Si       0.00003258       2.71397916       2.71565606       0.00000000
Si       2.71484253       2.71500543       0.00041456       0.00000000
Si      -2.71487511      -2.71546644       0.00027637       0.00000000
