10
Lattice="16.28999089631971 0.0 0.0 0.0 16.28999089631971 0.0 0.0 0.0 34.54679606040008" Properties=species:S:1:pos:R:3:initial_magmoms:R:1 pbc="T T T"
Si      -1.36028016       1.35682668       1.36014267       0.00000000
Si       1.35679410      -1.36052451       1.36110998       0.00000000
Si      -1.36863693      -1.37613033      -1.35956574       0.00000000
Si       1.36852290       1.36236528      -1.38502328       0.00000000
Si      -2.71098017       2.71274112       0.00304012       0.00000000
Si      -2.71534915      -2.71370223       0.00521657       0.00000000
Si       2.71497285       2.71518462      -0.00034547       0.00000000
Si       0.00004887       2.71397916       2.71817798       0.00000000
Si       2.71497285      -0.00079821       2.71814343       0.00000000
Si      -2.71503801      -0.00114030       2.71831617       0.00000000
