10
Lattice="16.28999089631971 0.0 0.0 0.0 16.28999089631971 0.0 0.0 0.0 34.54679606040008" Properties=species:S:1:pos:R:3:initial_magmoms:R:1 pbc="T T T"
Si       1.24541937      -1.45966545      -1.31398812       0.00000000
Si      -1.28793627      -1.25872830       1.49173149       0.00000000
Si      -1.50381135       1.28361942      -1.30673329       0.00000000
Si       1.26703620       1.56183633       1.31077527       0.00000000
Si       2.58222564      -0.08019567      -2.67606541       0.00000000
Si      -0.13958901       2.63655279      -2.67444171       0.00000000
Si      -2.76964209      -2.62870101       0.11839194       0.00000000
Si      -0.13330107      -2.79661833      -2.67416534       0.00000000
Si      -2.48831379       0.23006367       2.97012790       0.00000000
Si       2.52211554      -2.95596711       0.17017761       0.00000000
