10
Lattice="16.28999089631971 0.0 0.0 0.0 16.28999089631971 0.0 0.0 0.0 34.54679606040008" Properties=species:S:1:pos:R:3:initial_magmoms:R:1 pbc="T T T"
Si       1.34671222       1.33757190      -1.36478231       0.00000000
Si      -1.35801848       1.35477414       1.35641161       0.00000000
Si       1.35524818      -1.36008468       1.35537521       0.00000000
Si      -1.35165202      -1.35601218      -1.39016040       0.00000000
Si       2.67692104      -0.11057652      -2.70902653       0.00000000
Si      -2.71071043       2.71060713      -0.00476746       0.00000000
Si       0.00705357       2.51142930      -2.89991841       0.00000000
Si       0.00031114       2.71256193       2.71309960       0.00000000
Si      -2.71447342      -0.00216657       2.71327233       0.00000000
Si       2.71502335      -0.00219915       2.71289232       0.00000000
