10
Lattice="16.28999089631971 0.0 0.0 0.0 16.28999089631971 0.0 0.0 0.0 34.54679606040008" Properties=species:S:1:pos:R:3:initial_magmoms:R:1 pbc="T T T"
Si      -1.14521958      -0.12316869      -1.98025800       0.00000000
Si      -0.73803474       2.23893018       0.47622785       0.00000000
Si      -0.55760670      -1.89931626       1.37406503       0.00000000
Si       2.28990159      -0.00073305      -0.78708009       0.00000000
Si       0.97171479      -1.33455825       3.10720967       0.00000000
Si      -0.41630724       1.77253119      -3.14859675       0.00000000
Si      -3.42533088      -0.03538188      -1.40425895       0.00000000
Si      -0.09772371       3.41272242      -1.44792613       0.00000000
Si       0.12072519       2.69131977       2.58102712       0.00000000
Si       3.09102750      -2.10740472      -0.05731317       0.00000000
