10
Lattice="16.28999089631971 0.0 0.0 0.0 16.28999089631971 0.0 0.0 0.0 34.54679606040008" Properties=species:S:1:pos:R:3:initial_magmoms:R:1 pbc="T T T"
Si       1.35689184      -1.35850455       1.35478791       0.00000000
Si      -1.35728280      -1.35682668      -1.35789712       0.00000000
Si       1.35739683       1.35785295      -1.35824259       0.00000000
Si      -1.35814617       1.36172997       1.35523702       0.00000000
Si      -0.01609452       2.71202436       2.70639752       0.00000000
Si       2.69322570       0.00687438       2.72536372       0.00000000
Si       0.02028105      -2.70466128       2.71924893       0.00000000
Si      -2.70627399      -0.01860318       2.72145993       0.00000000
Si       2.71347417      -2.71463076      -0.00013819       0.00000000
Si      -2.71453302      -2.71360449      -0.00120914       0.00000000
