10
Lattice="16.28999089631971 0.0 0.0 0.0 16.28999089631971 0.0 0.0 0.0 34.54679606040008" Properties=species:S:1:pos:R:3:initial_magmoms:R:1 pbc="T T T"
Si       1.23408153      -1.42211700      -1.41949410       0.00000000
Si      -1.31953887      -1.59224976       1.18336661       0.00000000
Si      -1.49247351       1.26394110      -1.41728310       0.00000000
Si       0.81313164       1.62204417       1.64743398       0.00000000
Si      -0.39387591      -0.03536559       3.25973386       0.00000000
Si       2.40282387       2.60607420      -0.00659844       0.00000000
Si       0.29147697      -2.37926853       2.86742022       0.00000000
Si       2.57069232      -0.07596027      -2.78395512       0.00000000
Si       2.73103479      -2.63182869      -0.04815826       0.00000000
Si      -0.14434569       2.64427425      -2.78350601       0.00000000
