10
Lattice="16.28999089631971 0.0 0.0 0.0 16.28999089631971 0.0 0.0 0.0 34.54679606040008" Properties=species:S:1:pos:R:3:initial_magmoms:R:1 pbc="T T T"
Si       1.33965865      -1.17385740       1.53513611       0.00000000
Si       1.88941357       0.66051063      -1.24720019       0.00000000
Si      -1.30277092      -1.26511398      -1.56205986       0.00000000
Si      -1.34575420       1.53756423       1.52779491       0.00000000
Si      -1.97254537       0.52090533      -2.97008442       0.00000000
Si      -2.70805516      -2.57439015      -0.04121090       0.00000000
Si       2.66986747      -2.62200582       0.19089188       0.00000000
Si       2.63323126       2.73800691      -0.01492077       0.00000000
Si      -0.00705357      -2.51142930       2.89991841       0.00000000
Si       1.37289025      -0.39161160      -3.60415666       0.00000000
