10
Lattice="16.28999089631971 0.0 0.0 0.0 16.28999089631971 0.0 0.0 0.0 34.54679606040008" Properties=species:S:1:pos:R:3:initial_magmoms:R:1 pbc="T T T"
Si       1.33191927       1.57374432       1.11185471       0.00000000
Si      -2.01238515       1.03462677      -0.69328549       0.00000000
Si      -1.10470635      -1.50781869       1.49480615       0.00000000
Si       1.70996130      -0.76071042      -1.59640834       0.00000000
Si      -3.05385372      -1.00243773      -1.46430132       0.00000000
Si       2.34647676       2.71349046      -0.71791737       0.00000000
Si       3.07180530       0.16171083       2.08673129       0.00000000
Si      -2.53625526      -2.73290814       0.09227454       0.00000000
Si       0.58629339      -2.34092187       2.87857884       0.00000000
Si       2.60921817      -2.74098798      -0.63189580       0.00000000
