10
Lattice="16.28999089631971 0.0 0.0 0.0 16.28999089631971 0.0 0.0 0.0 34.54679606040008" Properties=species:S:1:pos:R:3:initial_magmoms:R:1 pbc="T T T"
Si       1.87005942       1.26829053       0.72420489       0.00000000
Si      -1.01455749      -1.13974614       1.82977208       0.00000000
Si       1.02943026      -1.78328259      -1.28597066       0.00000000
Si      -1.63396845       0.88974351      -1.62145478       0.00000000
Si       2.83242375       1.45665180      -1.45908475       0.00000000
Si      -0.63651546      -3.47420088      -0.87849097       0.00000000
Si      -2.34647676      -2.71349046       0.71791737       0.00000000
Si       0.82303596       2.76034050      -2.27732607       0.00000000
Si       0.72532854      -2.55177963       2.80464866       0.00000000
Si       0.19218942      -1.48524075      -3.62212995       0.00000000
