10
Lattice="16.28999089631971 0.0 0.0 0.0 16.28999089631971 0.0 0.0 0.0 34.54679606040008" Properties=species:S:1:pos:R:3:initial_magmoms:R:1 pbc="T T T"
Si      -1.65907134       0.66274236      -1.47324894       0.00000000
Si       1.00914921       1.45963287       1.54709418       0.00000000
Si      -1.64131524      -1.30579011       1.38305899       0.00000000
Si       2.30514903      -0.80521470      -1.64446296       0.00000000
Si       2.33481312       0.07801281       2.94179057       0.00000000
Si       2.64520278      -2.70161505      -0.19038750       0.00000000
Si      -2.82185154       2.51928108      -0.36111786       0.00000000
Si       1.94386941       3.30294411       0.16658474       0.00000000
Si      -0.36487971      -2.63837727       2.90741995       0.00000000
Si      -1.80848322      -1.70285886      -3.11138983       0.00000000
