10
Lattice="16.28999089631971 0.0 0.0 0.0 16.28999089631971 0.0 0.0 0.0 34.54679606040008" Properties=species:S:1:pos:R:3:initial_magmoms:R:1 pbc="T T T"
Si       1.65907134      -0.66274236       1.47324894       0.00000000
Si      -1.16278020       1.85653872       1.11213108       0.00000000
Si       0.26191062      -0.14092479      -2.46166788       0.00000000
Si      -0.14941188      -2.36560122      -1.63814089       0.00000000
Si       0.01775610      -1.96853247       2.85630793       0.00000000
Si      -1.98262332       0.29144439      -3.39346458       0.00000000
Si      -2.83752252       0.83401542       2.77809394       0.00000000
Si      -1.76472828       3.65104512      -0.35141021       0.00000000
Si       2.66822055       0.79689051       3.02034312       0.00000000
Si       3.96422037      -1.46795706      -0.17121402       0.00000000
