10
Lattice="16.28999089631971 0.0 0.0 0.0 16.28999089631971 0.0 0.0 0.0 34.54679606040008" Properties=species:S:1:pos:R:3:initial_magmoms:R:1 pbc="T T T"
Si       1.36231641      -1.20041010       1.56929254       0.00000000
Si       1.87828587       1.05011856      -1.14196713       0.00000000
Si      -1.07124669      -1.46430810      -1.71606611       0.00000000
Si      -1.34566803       1.50310841       1.54622218       0.00000000
Si      -1.67319477       0.33019830      -3.17960740       0.00000000
Si      -2.74598901      -2.48683140      -0.05010325       0.00000000
Si       2.75975406      -2.52395631       0.19214593       0.00000000
Si       0.01712079      -2.55163302       2.93792336       0.00000000
Si       3.69447426      -0.68064507      -1.18836350       0.00000000
Si      -2.83436226       2.77631026       0.16717895       0.00000000
