10
Lattice="16.28999089631971 0.0 0.0 0.0 16.28999089631971 0.0 0.0 0.0 34.54679606040008" Properties=species:S:1:pos:R:3:initial_magmoms:R:1 pbc="T T T"
Si      -1.34519562      -1.35122292       1.36863082       0.00000000
Si       1.36759437       1.36557441       1.36500340       0.00000000
Si       1.39743765      -1.32354621      -1.37714661       0.00000000
Si      -1.36231641       1.20041010      -1.56929254       0.00000000
Si       0.51596946       2.25052866      -2.71125967       0.00000000
Si       2.33215785       0.51976503      -2.75765605       0.00000000
Si      -2.70798444       2.70351851      -0.02307036       0.00000000
Si      -2.70938538      -2.71163340      -0.03487156       0.00000000
Si       2.72310156      -2.70516627       0.01754978       0.00000000
Si      -2.70457983       0.00348606       2.72787527       0.00000000
