10
Lattice="16.28999089631971 0.0 0.0 0.0 16.28999089631971 0.0 0.0 0.0 34.54679606040008" Properties=species:S:1:pos:R:3:initial_magmoms:R:1 pbc="T T T"
Si       1.20761028      -2.03322006       0.28027831       0.00000000
Si      -0.61854759       0.34176420       2.28095348       0.00000000
Si       1.75837518       1.54259784      -0.60418925       0.00000000
Si      -1.97806212       0.28225683      -1.57416019       0.00000000
Si       1.83845682       2.21236119       1.62508219       0.00000000
Si      -0.63451179       2.68708437       1.82918478       0.00000000
Si      -3.18506967      -1.37515293       0.03813968       0.00000000
Si      -0.38836989       1.26628686      -3.22819262       0.00000000
Si      -2.88373725      -0.55773702       2.28212808       0.00000000
Si       0.83238642       3.00242619      -2.14259349       0.00000000
