10
Lattice="16.28999089631971 0.0 0.0 0.0 16.28999089631971 0.0 0.0 0.0 34.54679606040008" Properties=species:S:1:pos:R:3:initial_magmoms:R:1 pbc="T T T"
Si       0.61854759      -0.34176420      -2.28095348       0.00000000
Si      -0.01596420       2.34532017      -0.45176870       0.00000000
Si      -2.26518966      -0.89950122       0.00117459       0.00000000
Si       1.63396845      -0.88974351       1.62145478       0.00000000
Si       2.45700441       1.87059699      -0.65587129       0.00000000
Si       1.82615787      -2.37498426      -2.00067517       0.00000000
Si       2.66339871      -2.67302610       0.33548412       0.00000000
Si      -2.56652208      -1.71691713      -2.24281380       0.00000000
Si       2.37692277       1.20083364      -2.88514274       0.00000000
Si       0.61941096      -2.02948965       3.45122686       0.00000000
