10
Lattice="16.28999089631971 0.0 0.0 0.0 16.28999089631971 0.0 0.0 0.0 34.54679606040008" Properties=species:S:1:pos:R:3:initial_magmoms:R:1 pbc="T T T"
Si       2.17235295      -0.24083136       0.86014661       0.00000000
Si      -0.98262909       0.10637370       2.14048613       0.00000000
Si      -1.02249072      -1.92380013      -0.94281714       0.00000000
Si      -0.89204040       1.87637994      -1.15655828       0.00000000
Si       1.59283620      -2.17269504       2.07349986       0.00000000
Si      -0.70385832      -2.18766555       2.76208698       0.00000000
Si      -3.18135555      -0.93682161      -1.44402234       0.00000000
Si      -3.23149617       0.83813679       1.80237645       0.00000000
Si       0.83945628       2.75158269      -2.51037889       0.00000000
Si       2.78899461       1.72230912       2.04358232       0.00000000
