10
Lattice="16.28999089631971 0.0 0.0 0.0 16.28999089631971 0.0 0.0 0.0 34.54679606040008" Properties=species:S:1:pos:R:3:initial_magmoms:R:1 pbc="T T T"
Si       1.41125061      -1.93929911       0.10564416       0.00000000
Si       1.45538511       1.92006972       0.01022586       0.00000000
Si      -0.82518624       0.08760762      -2.26330006       0.00000000
Si      -1.42695513       0.26231787       2.12635649       0.00000000
Si      -1.24211250      -2.01271814       2.59567497       0.00000000
Si       3.02515793       1.01432943       1.49045326       0.00000000
Si      -2.70959715       1.50384393      -2.07111613       0.00000000
Si       0.90445338      -2.94173684       2.16221608       0.00000000
Si       0.00941562       3.73651875       0.75719710       0.00000000
Si       1.77273386       2.53144971      -2.33381011       0.00000000
