10
Lattice="16.28999089631971 0.0 0.0 0.0 16.28999089631971 0.0 0.0 0.0 34.54679606040008" Properties=species:S:1:pos:R:3:initial_magmoms:R:1 pbc="T T T"
Si       1.35177678       1.36417347       1.39012930       0.00000000
Si      -1.36603053      -1.34993601       1.39133844       0.00000000
Si      -1.29593466       1.38932523      -1.51012421       0.00000000
Si       1.36148562      -1.40939451      -1.54623254       0.00000000
Si       2.71083519      -2.70244584       0.00473637       0.00000000
Si      -2.72391606      -2.70000234       0.02490825       0.00000000
Si       2.72378657       2.70255987       0.02277326       0.00000000
Si      -2.71329498       2.72767905       0.00654317       0.00000000
Si       2.70446873       0.00834048       2.75130838       0.00000000
Si      -0.00904095      -2.70529659       2.75117019       0.00000000
