10
Lattice="16.28999089631971 0.0 0.0 0.0 16.28999089631971 0.0 0.0 0.0 34.54679606040008" Properties=species:S:1:pos:R:3:initial_magmoms:R:1 pbc="T T T"
Si       1.29593466      -1.38932523       1.51012421       0.00000000
Si      -1.41736032       1.33835382       1.51666738       0.00000000
Si      -1.80041967      -1.00339884      -1.42084284       0.00000000
Si       1.59272217       1.27511604      -1.58114007       0.00000000
Si       2.54928726       2.58273063       0.25216411       0.00000000
Si      -2.69379585       2.67094098      -0.00769358       0.00000000
Si       2.65742028      -2.79871974      -0.03610833       0.00000000
Si      -2.78115912      -2.68824096       0.12592660       0.00000000
Si       2.64771144      -0.02515176       2.90025352       0.00000000
Si      -0.07716573       2.69138493       2.90367365       0.00000000
