10
Lattice="16.28999089631971 0.0 0.0 0.0 16.28999089631971 0.0 0.0 0.0 34.54679606040008" Properties=species:S:1:pos:R:3:initial_magmoms:R:1 pbc="T T T"
Si      -2.24914401       0.93079431       0.15262783       0.00000000
Si      -0.86051925      -1.97583039      -1.18074106       0.00000000
Si       1.85849352       0.25684443       1.64757217       0.00000000
Si       1.94603598       0.78208290      -1.55726680       0.00000000
Si       0.15952797      -0.16459416      -2.81242169       0.00000000
Si       3.30446301      -1.55960460       0.90060093       0.00000000
Si       1.02389166      -3.39206670      -1.37292499       0.00000000
Si      -2.53219905      -3.02976081       0.55886383       0.00000000
Si       3.62181176      -0.94822461      -1.44343504       0.00000000
Si       1.84907790      -3.47967432       0.89037507       0.00000000
