10
Lattice="16.28999089631971 0.0 0.0 0.0 16.28999089631971 0.0 0.0 0.0 34.54679606040008" Properties=species:S:1:pos:R:3:initial_magmoms:R:1 pbc="T T T"
Si       0.12347820      -2.22834168       0.76814844       0.00000000
Si       0.45646209       0.09534537      -2.33097727       0.00000000
Si       2.14390639       1.00660797       0.67701394       0.00000000
Si      -2.33854353       0.70472169       0.48320631       0.00000000
Si       2.13635109       1.95947523      -2.15402848       0.00000000
Si      -0.97990866      -3.37885551      -0.96181789       0.00000000
Si      -2.29506552       1.20684465       2.86016539       0.00000000
Si       1.79491432       3.29502717       1.06511286       0.00000000
Si      -0.58344264      -2.41305399       3.05072562       0.00000000
Si       2.94593966      -0.02464677       2.61388114       0.00000000
