10
Lattice="16.28999089631971 0.0 0.0 0.0 16.28999089631971 0.0 0.0 0.0 34.54679606040008" Properties=species:S:1:pos:R:3:initial_magmoms:R:1 pbc="T T T"
Si       0.24654915      -2.13965892      -1.05540521       0.00000000
Si       2.27256903       0.76685175       0.24628425       0.00000000
Si      -1.46507373       1.48023972      -1.24596544       0.00000000
Si      -0.82526769      -0.39508137       2.24906677       0.00000000
Si       0.24208569       1.28360313       3.47195494       0.00000000
Si      -3.53147652       1.37818287      -0.11244988       0.00000000
Si      -1.62658908      -3.43049481      -0.33379133       0.00000000
Si      -0.02414178      -2.50175304       2.97883370       0.00000000
Si       2.33869014       3.13387020       0.64637092       0.00000000
Si       0.95346999      -1.95494661      -3.33798239       0.00000000
