10
Lattice="16.28999089631971 0.0 0.0 0.0 16.28999089631971 0.0 0.0 0.0 34.54679606040008" Properties=species:S:1:pos:R:3:initial_magmoms:R:1 pbc="T T T"
Si       0.45260136       1.94279427      -1.16339855       0.00000000
Si      -1.06735338      -1.67868450      -1.22288817       0.00000000
Si       2.17391679      -0.69747264       0.55983114       0.00000000
Si      -0.92097144       0.95607639       1.98920563       0.00000000
Si       1.37468052      -1.89156222       2.48104864       0.00000000
Si       1.47465225       3.13132896       0.56124756       0.00000000
Si       3.10513042       1.41610599       1.10466897       0.00000000
Si      -0.24208569      -1.28360313      -3.47195494       0.00000000
Si      -0.18024885      -0.55796508       3.69409097       0.00000000
Si      -3.35725497      -1.67795145      -0.43580808       0.00000000
