10
Lattice="16.28999089631971 0.0 0.0 0.0 16.28999089631971 0.0 0.0 0.0 34.54679606040008" Properties=species:S:1:pos:R:3:initial_magmoms:R:1 pbc="T T T"
Si      -1.55492937       1.33359714       1.21304233       0.00000000
Si       0.79923627       1.19408958      -1.92121750       0.00000000
Si       1.78855633      -0.29401821       1.57754578       0.00000000
Si      -1.60055766      -1.70261451      -0.61434602       0.00000000
Si       0.19865655       2.42101980       2.32368790       0.00000000
Si      -1.37468052       1.89156222      -2.48104864       0.00000000
Si       2.50136927      -2.35338372       0.40157218       0.00000000
Si      -2.29565196       2.84763861      -0.49184301       0.00000000
Si       0.86843100       0.63500049       3.73171245       0.00000000
Si      -1.64090799      -1.89379395      -2.97416988       0.00000000
