10
Lattice="16.28999089631971 0.0 0.0 0.0 16.28999089631971 0.0 0.0 0.0 34.54679606040008" Properties=species:S:1:pos:R:3:initial_magmoms:R:1 pbc="T T T"
Si      -1.35365013      -1.35879777      -1.36656838       0.00000000
Si       1.36065065       1.35609363      -1.36998851       0.00000000
Si       1.27008243      -1.46199492       1.37375411       0.00000000
Si      -1.28800143       1.47333276       1.35126414       0.00000000
Si      -2.29027626      -0.14432940       2.71714158       0.00000000
Si       2.47289598       0.04341285       2.68501304       0.00000000
Si       2.70063832       2.72194497       0.01858619       0.00000000
Si      -2.71181259      -2.71808424       0.00221100       0.00000000
Si       0.00241092       2.71099809      -2.72688378       0.00000000
Si      -2.71397916      -0.00171045      -2.72684923       0.00000000
