10
Lattice="16.28999089631971 0.0 0.0 0.0 16.28999089631971 0.0 0.0 0.0 34.54679606040008" Properties=species:S:1:pos:R:3:initial_magmoms:R:1 pbc="T T T"
Si      -1.44622620       1.24646193      -1.35261146       0.00000000
Si      -1.00227483      -1.61766216       1.36587744       0.00000000
Si       1.28800143      -1.47333276      -1.35126414       0.00000000
Si       0.93656097       1.54538343       1.58638976       0.00000000
Si       2.72336108       0.37792800       2.46964819       0.00000000
Si      -2.62221759      -2.67478542       0.01260959       0.00000000
Si       2.58088986       2.69821044       0.35037380       0.00000000
Si      -0.07007958       2.59941159      -2.71396327       0.00000000
Si       2.64865208      -0.11723913      -2.72125265       0.00000000
Si      -1.35444834      -0.73638945       3.56264033       0.00000000
