10
Lattice="16.28999089631971 0.0 0.0 0.0 16.28999089631971 0.0 0.0 0.0 34.54679606040008" Properties=species:S:1:pos:R:3:initial_magmoms:R:1 pbc="T T T"
Si      -1.45746630      -1.78846281       0.43173155       0.00000000
Si      -1.20761028       2.03322006      -0.28027831       0.00000000
Si       0.35217351      -0.88127271      -2.19676290       0.00000000
Si       0.83724084      -0.29804184       2.33615930       0.00000000
Si      -0.82870488      -1.98896013       2.74363898       0.00000000
Si      -1.82615787       2.37498426       2.00067517       0.00000000
Si       0.55076490       3.57581790      -0.88446757       0.00000000
Si       2.29100931       2.28177288      -1.97625057       0.00000000
Si       1.35444834       0.73638945      -3.56264033       0.00000000
Si      -0.19218942       1.48524075       3.62212995       0.00000000
