10
Lattice="16.28999089631971 0.0 0.0 0.0 16.28999089631971 0.0 0.0 0.0 34.54679606040008" Properties=species:S:1:pos:R:3:initial_magmoms:R:1 pbc="T T T"
Si       1.91604609      -1.00128114       0.84577513       0.00000000
Si      -1.99153395      -1.20930444       0.12543949       0.00000000
Si      -0.35290656       1.98088029       1.29785476       0.00000000
Si       0.17539443      -0.34686297      -2.36707870       0.00000000
Si      -3.63970728       0.41229990      -0.33662417       0.00000000
Si       2.50649343       0.00024435      -2.70733028       0.00000000
Si       3.56004918      -1.09380834      -0.81641034       0.00000000
Si      -1.56449160       1.06517052      -3.34195528       0.00000000
Si      -2.64960108       1.96590978       1.98644188       0.00000000
Si       1.46344473      -2.94407541       2.00917369       0.00000000
