10
Lattice="16.28999089631971 0.0 0.0 0.0 16.28999089631971 0.0 0.0 0.0 34.54679606040008" Properties=species:S:1:pos:R:3:initial_magmoms:R:1 pbc="T T T"
Si      -0.45260136      -1.94279427       1.16339855       0.00000000
Si      -1.91604609       1.00128114      -0.84577513       0.00000000
Si       1.02205089       1.18853469       1.72464612       0.00000000
Si       1.64400309      -0.09252720      -1.66218547       0.00000000
Si       2.65252906      -0.52668828       2.26806752       0.00000000
Si       1.57788198      -2.45954565      -2.06227214       0.00000000
Si      -1.37357280      -0.98671788       3.15260418       0.00000000
Si       1.72131543      -2.64026691       1.72322970       0.00000000
Si       1.48693491       3.24415350       0.62785382       0.00000000
Si      -0.70736067       1.25379243       3.37543114       0.00000000
