10
Lattice="16.28999089631971 0.0 0.0 0.0 16.28999089631971 0.0 0.0 0.0 34.54679606040008" Properties=species:S:1:pos:R:3:initial_magmoms:R:1 pbc="T T T"
Si      -2.12077881       0.74446929       0.68233415       0.00000000
Si       1.37649101       1.88059905      -0.32518917       0.00000000
Si       0.40263993      -0.81414162      -2.21272352       0.00000000
Si       1.05559200      -0.92540232       2.07146160       0.00000000
Si       3.32574101       0.48658230      -0.40492322       0.00000000
Si      -2.70029556      -1.18739439       1.89568740       0.00000000
Si       0.82417626       3.03878547       1.64249379       0.00000000
Si      -1.50413715       2.70760977       1.86576986       0.00000000
Si       3.24662048      -1.13911083       1.26855906       0.00000000
Si       2.79643329      -0.56299869      -2.46315339       0.00000000
