10
Lattice="16.28999089631971 0.0 0.0 0.0 16.28999089631971 0.0 0.0 0.0 34.54679606040008" Properties=species:S:1:pos:R:3:initial_magmoms:R:1 pbc="T T T"
Si       0.46371603      -2.28740922       0.18731283       0.00000000
Si      -1.16193542       1.03068459      -1.78665765       0.00000000
Si       2.27394228       0.31354992      -0.66972456       0.00000000
Si      -1.01850197       0.84996333       1.99884419       0.00000000
Si       1.71296355      -2.13126957       2.22146387       0.00000000
Si       0.34142700       0.51258114      -3.52519159       0.00000000
Si      -1.57801460      -3.30572970       0.06087149       0.00000000
Si      -3.19241876       1.54743597       1.43901305       0.00000000
Si      -1.09581431       3.39770304      -1.38657098       0.00000000
Si       3.38607687       1.52111133       0.94305897       0.00000000
