10
Lattice="16.28999089631971 0.0 0.0 0.0 16.28999089631971 0.0 0.0 0.0 34.54679606040008" Properties=species:S:1:pos:R:3:initial_magmoms:R:1 pbc="T T T"
Si       1.01365991      -1.22109840       1.68895926       0.00000000
Si      -1.20281355      -1.50540777      -1.31125892       0.00000000
Si      -1.03753633       1.80784791       1.13589929       0.00000000
Si       1.56339854       1.30329774      -1.27933767       0.00000000
Si      -2.47289598      -0.04341285      -2.68501304       0.00000000
Si       0.22774235       2.67853212      -2.66642685       0.00000000
Si       0.25572368      -2.76030792      -2.68007284       0.00000000
Si      -0.56989913      -2.02095369       3.29980816       0.00000000
Si       2.90465198      -2.67731037       0.33223672       0.00000000
Si       2.26018700       3.28707765      -0.05123293       0.00000000
