10
Lattice="16.28999089631971 0.0 0.0 0.0 16.28999089631971 0.0 0.0 0.0 34.54679606040008" Properties=species:S:1:pos:R:3:initial_magmoms:R:1 pbc="T T T"
Si       1.64610450       0.23289813      -1.85516399       0.00000000
Si       1.08742266      -1.84106322       1.34566755       0.00000000
Si      -2.36871261      -0.73063908      -0.53267735       0.00000000
Si       0.35298801       1.07636175       2.27870794       0.00000000
Si       2.44121940      -0.07464078       2.07920008       0.00000000
Si      -2.32729545      -0.83803905      -2.90341800       0.00000000
Si      -3.76487054       0.98953605       0.35261934       0.00000000
Si       2.13659640      -2.78550855      -1.73017361       0.00000000
Si      -0.20953827      -2.24793855       3.26643594       0.00000000
Si      -0.90353788      -0.06675642       3.92244542       0.00000000
