10
Lattice="16.28999089631971 0.0 0.0 0.0 16.28999089631971 0.0 0.0 0.0 34.54679606040008" Properties=species:S:1:pos:R:3:initial_magmoms:R:1 pbc="T T T"
Si       1.25652589       1.14311817      -1.64373748       0.00000000
Si       0.52930771       1.04958099       2.05823017       0.00000000
Si       0.69399961      -2.18118213      -0.65600948       0.00000000
Si      -2.39379336      -0.25114293       0.25042986       0.00000000
Si      -1.41994229       2.44359774       2.13796422       0.00000000
Si       1.99096054      -1.77430680      -2.57677786       0.00000000
Si      -2.63732886      -2.60503164       0.35365575       0.00000000
Si      -2.79643329       0.56299869       2.46315339       0.00000000
Si      -1.29755714      -3.26453229      -1.44281320       0.00000000
Si       0.45018718      -0.57611214       3.73171245       0.00000000
