10
Lattice="16.28999089631971 0.0 0.0 0.0 16.28999089631971 0.0 0.0 0.0 34.54679606040008" Properties=species:S:1:pos:R:3:initial_magmoms:R:1 pbc="T T T"
Si       1.29780801      -0.44373960      -1.90760605       0.00000000
Si      -0.11098377       2.26282761       0.72099204       0.00000000
Si       0.91108341      -0.93317265       2.02900356       0.00000000
Si      -2.14494407      -0.86014458      -0.76614472       0.00000000
Si      -1.13641809      -1.29430566       3.16410827       0.00000000
Si       1.82682576       2.41230465       2.08852772       0.00000000
Si      -2.30201225       2.47653612       1.52389457       0.00000000
Si       0.13282866       0.65775762      -3.66672989       0.00000000
Si       1.34172585      -2.79627624      -2.13285129       0.00000000
Si       3.39376086       0.60328386      -1.57060187       0.00000000
