10
Lattice="16.28999089631971 0.0 0.0 0.0 16.28999089631971 0.0 0.0 0.0 34.54679606040008" Properties=species:S:1:pos:R:3:initial_magmoms:R:1 pbc="T T T"
Si       1.42586370      -1.80356364      -0.46551834       0.00000000
Si      -2.04750150      -0.36113301       1.13510471       0.00000000
Si       0.92694987       1.55994669       1.53197853       0.00000000
Si      -0.91108341       0.93317265      -2.02900356       0.00000000
Si       0.91574235       3.34547730       0.05952416       0.00000000
Si      -1.02206718       3.19600026      -1.30801152       0.00000000
Si       0.31372911      -3.01112505      -2.07830187       0.00000000
Si      -1.60004615      -0.40869981       3.46511467       0.00000000
Si      -0.47816037       1.75343931       3.45381787       0.00000000
Si      -2.97871514      -2.47471164       0.59026689       0.00000000
