10
Lattice="16.28999089631971 0.0 0.0 0.0 16.28999089631971 0.0 0.0 0.0 34.54679606040008" Properties=species:S:1:pos:R:3:initial_magmoms:R:1 pbc="T T T"
Si      -1.60203028       1.75161483      -0.13884365       0.00000000
Si       1.40511024      -0.19349262      -1.92183934       0.00000000
Si      -1.12188578      -2.16213912       0.01129681       0.00000000
Si       2.16876915       1.06285734       0.69266365       0.00000000
Si      -1.56934113      -2.11457232      -2.31871315       0.00000000
Si      -0.47641734       3.37426173       1.17227709       0.00000000
Si       3.56827563       0.11321550      -0.94938103       0.00000000
Si       1.60495596       3.35622870       0.10239676       0.00000000
Si       0.47816037      -1.75343931      -3.45381787       0.00000000
Si      -3.38267456       1.36254447       1.44661335       0.00000000
