10
Lattice="16.28999089631971 0.0 0.0 0.0 16.28999089631971 0.0 0.0 0.0 34.54679606040008" Properties=species:S:1:pos:R:3:initial_magmoms:R:1 pbc="T T T"
Si      -1.35631029      -1.35762489       1.35820805       0.00000000
Si       1.35892809       1.35770634       1.35810441       0.00000000
Si      -1.35726325       1.36352187      -1.35496065       0.00000000
Si       1.36288656      -1.36169739      -1.36045359       0.00000000
Si      -2.71973672       0.00705357      -2.70500182       0.00000000
Si      -2.71488230       2.71428867       0.00165825       0.00000000
Si      -2.71389225       0.00047241       2.71582880       0.00000000
Si      -2.71387478      -2.71585251       0.00027637       0.00000000
Si       0.00128691      -2.71505430       2.71531059       0.00000000
Si       0.00084708       2.71539854       2.71541423       0.00000000
