10
Lattice="16.28999089631971 0.0 0.0 0.0 16.28999089631971 0.0 0.0 0.0 34.54679606040008" Properties=species:S:1:pos:R:3:initial_magmoms:R:1 pbc="T T T"
Si      -1.33620584      -1.22689764      -1.66332552       0.00000000
Si      -1.00415144       1.37406150       1.79135602       0.00000000
Si       1.29879030       1.37075463      -1.71079284       0.00000000
Si       2.10398871      -2.06795034      -0.73118335       0.00000000
Si      -1.19373462      -3.54718008       0.45594887       0.00000000
Si      -2.98053473      -2.37972465      -0.42730956       0.00000000
Si       2.77966533      -2.47624290       1.50420289       0.00000000
Si       2.81670879       2.89543577      -0.61628064       0.00000000
Si      -1.51094867       0.37162377       3.84792794       0.00000000
Si      -2.61629033       0.04124628      -3.34454629       0.00000000
