10
Lattice="16.2900001489832 0.0 0.0 0.0 16.2900001489832 0.0 0.0 0.0 29.20415829535462" Properties=species:S:1:pos:R:3:initial_magmoms:R:1 pbc="T T T"
Si      -1.38378664      -1.31852890       1.30940196       0.00000000
Si      -1.42923574       1.28835982      -1.32139915       0.00000000
Si       1.13209474      -1.34153038      -1.57670190       0.00000000
Si       1.45386134       1.37827411       1.26612432       0.00000000
Si       0.24011460       2.26199684      -2.66744801       0.00000000
Si       1.66130634       0.40489773      -3.21447110       0.00000000
Si       0.11572416      -2.70586676       2.53272619       0.00000000
Si      -2.58339854       0.10831221       2.75446168       0.00000000
Si       2.79767721      -2.55436976      -0.30252447       0.00000000
Si      -0.54560097      -2.90105355      -2.40154415       0.00000000
