10
Lattice="16.2900001489832 0.0 0.0 0.0 16.2900001489832 0.0 0.0 0.0 29.20415829535462" Properties=species:S:1:pos:R:3:initial_magmoms:R:1 pbc="T T T"
Si       0.97805161       1.74938800       1.21640021       0.00000000
Si      -1.81009595      -1.01755486       1.11723749       0.00000000
Si      -0.36929430       0.22028967      -2.32640588       0.00000000
Si       1.71556508      -1.68604760       0.19290544       0.00000000
Si      -0.52569459      -2.35941104       2.60484767       0.00000000
Si      -0.07490142      -2.09407952      -2.87199796       0.00000000
Si       2.34786143       0.47940851       2.66843972       0.00000000
Si       2.19962243      -2.05837184      -2.00667875       0.00000000
Si       1.45243270       1.33578979      -3.36464291       0.00000000
Si      -3.17065305      -2.25451973      -0.42422223       0.00000000
