10
Lattice="16.2900001489832 0.0 0.0 0.0 16.2900001489832 0.0 0.0 0.0 29.20415829535462" Properties=species:S:1:pos:R:3:initial_magmoms:R:1 pbc="T T T"
Si       1.42431616      -1.30478177      -1.32411654       0.00000000
Si       1.45445266       1.41117013       1.20779637       0.00000000
Si      -1.29453373       1.32370912      -1.50194066       0.00000000
Si      -1.38562741      -1.41440533       1.36409703       0.00000000
Si       0.06032187      -2.58381198      -2.70494755       0.00000000
Si       0.09539424       2.68477121       2.61117300       0.00000000
Si      -2.73864225       0.08615781       2.58964953       0.00000000
Si      -2.66686850       2.73585666      -0.21973209       0.00000000
Si       2.92014543       0.13665681       2.52776592       0.00000000
Si       2.72678312      -2.74054817       0.03113163       0.00000000
