10
Lattice="16.2900001489832 0.0 0.0 0.0 16.2900001489832 0.0 0.0 0.0 29.20415829535462" Properties=species:S:1:pos:R:3:initial_magmoms:R:1 pbc="T T T"
Si       1.27319709      -1.37037834      -1.40886700       0.00000000
Si      -1.29562516      -1.36875586       1.39771102       0.00000000
Si       1.75384169       0.91553059       1.33363709       0.00000000
Si      -1.38557854       1.42759045      -1.32309439       0.00000000
Si       2.59838534      -2.65351070       0.08314424       0.00000000
Si       2.60294654       2.72499123       0.00721343       0.00000000
Si       3.49425390      -0.74394802       1.22032496       0.00000000
Si       2.60330492       0.06514371      -2.74665109       0.00000000
Si      -2.60323976      -0.01316232       2.78444127       0.00000000
Si      -2.76120390      -2.70601337       0.06997316       0.00000000
