10
Lattice="16.2900001489832 0.0 0.0 0.0 16.2900001489832 0.0 0.0 0.0 29.20415829535462" Properties=species:S:1:pos:R:3:initial_magmoms:R:1 pbc="T T T"
Si       0.88404202       2.12939624       0.24724240       0.00000000
Si       0.66823210      -1.68202397       1.54983548       0.00000000
Si      -2.32870439       0.54820738      -0.06360666       0.00000000
Si       1.48774942      -0.72097912      -1.74033420       0.00000000
H       -0.81150265      -0.24488757      -2.90890939       0.00000000
Si       2.40611447      -2.10134486      -0.01939156       0.00000000
Si      -0.05841594       2.74018980       2.27871286       0.00000000
Si      -0.10316457       3.32048847      -1.55030274       0.00000000
Si      -2.22909104       2.19590831      -1.97820207       0.00000000
Si      -3.45307278      -1.53689635      -0.45234321       0.00000000
