10
Lattice="16.2900001489832 0.0 0.0 0.0 16.2900001489832 0.0 0.0 0.0 29.20415829535462" Properties=species:S:1:pos:R:3:initial_magmoms:R:1 pbc="T T T"
Si      -0.88809823      -0.02081862      -2.16075726       0.00000000
Si       2.03626631       1.17164197      -0.12779740       0.00000000
Si       0.65448334      -2.07338144       0.99545294       0.00000000
Si      -1.89441299       0.12123018       1.45422106       0.00000000
Si      -0.94876219      -1.71920915       2.65223404       0.00000000
H       -2.05970762       2.62703945      -0.34022844       0.00000000
Si       2.76897423       0.54796303      -2.28052352       0.00000000
Si      -1.94696453      -2.08218130      -2.33574858       0.00000000
Si       0.82484416       0.46330389      -3.66912284       0.00000000
Si       1.79940971       3.39543876      -0.81190480       0.00000000
