10
Lattice="16.2900001489832 0.0 0.0 0.0 16.2900001489832 0.0 0.0 0.0 29.20415829535462" Properties=species:S:1:pos:R:3:initial_magmoms:R:1 pbc="T T T"
Si       1.37642356      -1.27086436       1.43798355       0.00000000
Si      -1.40916646       1.41200092       1.27729643       0.00000000
Si      -0.89775820      -1.93332980      -1.06051309       0.00000000
Si       1.23020452       1.45293769      -1.43754549       0.00000000
Si       2.65380392      -2.61651611       0.01357409       0.00000000
Si      -2.74155816       0.06770124       2.69075433       0.00000000
Si      -0.04645908       2.75439468       2.68587723       0.00000000
Si       2.60038901       2.85110841      -0.07454361       0.00000000
Si       0.85727755      -3.56840598      -1.19656942       0.00000000
Si      -0.00115659      -2.70029558       2.77229234       0.00000000
