10
Lattice="16.2900001489832 0.0 0.0 0.0 16.2900001489832 0.0 0.0 0.0 29.20415829535462" Properties=species:S:1:pos:R:3:initial_magmoms:R:1 pbc="T T T"
Si      -1.35964486      -1.30702816       1.38693468       0.00000000
Si       1.37233477      -1.41214753      -1.28220857       0.00000000
Si       1.40457268       1.27571878       1.39187018       0.00000000
Si      -1.36806679       1.35584929      -1.36374658       0.00000000
Si       2.69746112       2.66279600      -0.01524457       0.00000000
Si       0.06105492       2.64549602       2.71919918       0.00000000
Si       2.74991493       0.01728369      -2.61651736       0.00000000
Si      -0.06069654      -2.82986625      -2.52987154       0.00000000
Si      -2.74641258       2.65189799       0.04526645       0.00000000
Si       2.66686850      -2.73585666       0.21973209       0.00000000
