10
Lattice="16.2900001489832 0.0 0.0 0.0 16.2900001489832 0.0 0.0 0.0 29.20415829535462" Properties=species:S:1:pos:R:3:initial_magmoms:R:1 pbc="T T T"
Si      -1.34351776       1.36977724       1.32732899       0.00000000
Si      -1.40457268      -1.27571878      -1.39187018       0.00000000
Si       1.29288844       1.38707722      -1.40711476       0.00000000
Si       1.35769006      -1.32680422       1.43903490       0.00000000
Si       2.71674848      -2.60040530       0.03565828       0.00000000
Si       2.63072099       2.68845275      -0.00700900       0.00000000
Si      -2.76421755      -2.58274694      -0.00493550       0.00000000
Si      -0.03223791      -2.68786631      -2.67407875       0.00000000
Si      -2.73636165       0.05691726       2.66400332       0.00000000
Si      -2.74613565       2.71505432      -0.01486492       0.00000000
