10
Lattice="16.2900001489832 0.0 0.0 0.0 16.2900001489832 0.0 0.0 0.0 29.20415829535462" Properties=species:S:1:pos:R:3:initial_magmoms:R:1 pbc="T T T"
Si       1.34351776      -1.36977724      -1.32732899       0.00000000
Si      -1.39284388      -1.31285998       1.33667433       0.00000000
Si      -1.40261788       1.34527708      -1.34219391       0.00000000
Si       1.26195373       1.34890975       1.47945346       0.00000000
H       -0.51930891      -2.28178919       2.10789774       0.00000000
Si      -0.56824408       2.08428923       2.82891920       0.00000000
Si      -2.31954941       0.31521150       2.74075185       0.00000000
Si       2.66623319       2.67015908       0.09838881       0.00000000
Si      -0.06105492      -2.64549602      -2.71919918       0.00000000
Si       2.63640620       0.01729998      -2.73444375       0.00000000
