10
Lattice="16.2900001489832 0.0 0.0 0.0 16.2900001489832 0.0 0.0 0.0 29.20415829535462" Properties=species:S:1:pos:R:3:initial_magmoms:R:1 pbc="T T T"
Si       2.07547634      -1.04042602       0.09646133       0.00000000
Si      -0.83426629      -0.63214975       2.10722604       0.00000000
Si       0.78843601       2.12015981      -0.64815709       0.00000000
Si      -1.69274230      -0.75738727      -1.46736293       0.00000000
Si      -2.03260106      -2.27395370       0.89204102       0.00000000
Si      -1.72662908       1.16027155      -2.87859547       0.00000000
Si       1.89903935       2.69620679       1.33644069       0.00000000
Si      -1.13107010       3.03070566      -1.52886689       0.00000000
Si       3.16195419       0.69569704       1.52872087       0.00000000
Si       3.51486075       0.07115472      -1.48912003       0.00000000
