10
Lattice="16.2900001489832 0.0 0.0 0.0 16.2900001489832 0.0 0.0 0.0 29.20415829535462" Properties=species:S:1:pos:R:3:initial_magmoms:R:1 pbc="T T T"
Si       1.27356850       1.27560475       1.50393530       0.00000000
Si       1.32646213      -1.35200485      -1.40594659       0.00000000
Si      -1.26734572       1.35788554      -1.48231546       0.00000000
Si      -1.35428545      -1.51951492       1.23403047       0.00000000
Si      -0.36913140      -1.92580382      -2.95370857       0.00000000
Si      -2.27949230      -0.42257889      -2.76797012       0.00000000
H        1.59721822       0.76942558      -3.38727350       0.00000000
Si      -2.71164971      -0.18788886       2.69089451       0.00000000
Si      -0.13502781       2.54078390       2.86532218       0.00000000
Si      -2.77998627       2.64567521      -0.16374772       0.00000000
