10
Lattice="16.2900001489832 0.0 0.0 0.0 16.2900001489832 0.0 0.0 0.0 29.20415829535462" Properties=species:S:1:pos:R:3:initial_magmoms:R:1 pbc="T T T"
Si       0.46776735       0.63416971       2.25260434       0.00000000
Si       1.83019781      -0.73537948      -1.34946575       0.00000000
Si      -0.94398922       1.80009389      -1.26932954       0.00000000
Si      -1.75130534      -1.76907773      -0.08816735       0.00000000
H       -2.45987147       0.62043724       1.45880612       0.00000000
H        0.53755371      -2.65764836       1.90428635       0.00000000
Si      -1.92902924       0.61543621       2.88472835       0.00000000
Si       0.56824408      -2.08428923      -2.82891920       0.00000000
Si      -2.21257298       0.60833377      -2.83607422       0.00000000
Si      -3.46998180      -0.67896721      -1.34038325       0.00000000
