10
Lattice="16.2900001489832 0.0 0.0 0.0 16.2900001489832 0.0 0.0 0.0 29.20415829535462" Properties=species:S:1:pos:R:3:initial_magmoms:R:1 pbc="T T T"
Si       1.38390067      -1.23535216      -1.48684211       0.00000000
Si      -1.40998096      -1.45466443       1.25633369       0.00000000
Si      -1.31802391       1.42957783      -1.39026396       0.00000000
Si       1.49573152       1.21461499       1.44321109       0.00000000
H        2.54374868       0.27266202       1.98640844       0.00000000
H        0.88749550       1.60306633       2.78736168       0.00000000
Si      -2.67856472      -2.64642455      -0.31041100       0.00000000
Si       2.76848553      -2.66888846      -0.20486717       0.00000000
Si       2.58535334       2.87565744       0.13156473       0.00000000
Si       2.70101234       0.19328085      -2.82664128       0.00000000
