10
Lattice="16.2900001489832 0.0 0.0 0.0 16.2900001489832 0.0 0.0 0.0 29.20415829535462" Properties=species:S:1:pos:R:3:initial_magmoms:R:1 pbc="T T T"
Si      -1.96830443      -0.91328257       0.87262025       0.00000000
Si       1.39419595       0.04707810       1.91295998       0.00000000
Si      -0.91631251       2.13997497      -0.45611054       0.00000000
Si       0.82787410      -0.83740375      -2.12466092       0.00000000
Si      -2.73857709       0.77463838       2.37061835       0.00000000
Si      -3.59676687      -0.61437736      -0.87481056       0.00000000
Si       3.53579340      -0.63346924       1.25861161       0.00000000
Si       2.60934851       0.64109296      -2.74002174       0.00000000
Si      -1.84625975       2.25720595      -2.58328303       0.00000000
Si      -0.91061101      -0.83254933      -3.72355939       0.00000000
