10
Lattice="16.2900001489832 0.0 0.0 0.0 16.2900001489832 0.0 0.0 0.0 29.20415829535462" Properties=species:S:1:pos:R:3:initial_magmoms:R:1 pbc="T T T"
Si      -1.33977106       1.40947597       1.32583958       0.00000000
Si       1.33573114       1.37398006      -1.37965701       0.00000000
Si      -1.44950050      -1.33628500      -1.32885053       0.00000000
Si       1.35607735      -1.34014573       1.43915172       0.00000000
Si      -0.02305035      -2.67256512      -2.63009729       0.00000000
Si      -2.71238276      -2.66014236       0.18486232       0.00000000
Si       2.71955036      -2.66318859       0.05978091       0.00000000
Si      -2.68224626       0.05580954       2.71677523       0.00000000
Si       0.04150692       2.71143794       2.72638340       0.00000000
Si      -2.66452274       2.77519701      -0.05738617       0.00000000
