10
Lattice="16.2900001489832 0.0 0.0 0.0 16.2900001489832 0.0 0.0 0.0 29.20415829535462" Properties=species:S:1:pos:R:3:initial_magmoms:R:1 pbc="T T T"
Si      -1.26600994       1.53942619       1.21775499       0.00000000
Si      -1.45937224      -1.33777880      -1.27887930       0.00000000
Si       1.32906853      -1.37899250       1.39239586       0.00000000
Si       1.30662091       1.41798424      -1.37983807       0.00000000
H       -2.30920526       0.82996410       2.31221003       0.00000000
Si       2.62102844      -2.68564599      -0.10002424       0.00000000
Si      -2.76183921       0.09798761      -2.63412747       0.00000000
Si      -0.15014493      -2.65777380      -2.75964694       0.00000000
Si       2.67009392       0.09494138      -2.75920888       0.00000000
Si       2.70469388       2.75461133      -0.00067170       0.00000000
