10
Lattice="16.2900001489832 0.0 0.0 0.0 16.2900001489832 0.0 0.0 0.0 29.20415829535462" Properties=species:S:1:pos:R:3:initial_magmoms:R:1 pbc="T T T"
Si       1.47062863      -1.07456514      -1.48906162       0.00000000
Si       0.90271036       1.84921296       1.15844135       0.00000000
Si      -2.04234248       0.51034762      -1.08811773       0.00000000
Si      -0.61351399      -1.99936473       1.17333547       0.00000000
Si      -1.21798702      -0.86331641       3.10916230       0.00000000
Si      -2.33328188      -1.59134910      -2.05024873       0.00000000
Si      -0.19168443      -2.27189644      -2.70459710       0.00000000
Si       3.15455853       1.19762273       1.64194539       0.00000000
Si      -3.64558800       0.86451992       0.56866337       0.00000000
Si       0.83680102       3.74518979      -0.29417349       0.00000000
