10
Lattice="16.2900001489832 0.0 0.0 0.0 16.2900001489832 0.0 0.0 0.0 29.20415829535462" Properties=species:S:1:pos:R:3:initial_magmoms:R:1 pbc="T T T"
Si      -1.00196533      -1.72284671      -1.28559625       0.00000000
Si       1.84581992       0.97244785      -1.15607581       0.00000000
Si      -1.27933516       1.98187726       0.37670444       0.00000000
Si      -0.26728632      -1.44249580       1.90288455       0.00000000
Si      -1.78613336      -2.81888679       0.67239654       0.00000000
Si      -0.00459378       2.62325203       2.31962789       0.00000000
Si       0.55627093       2.29111847      -2.66984415       0.00000000
Si      -2.36071424      -0.48081564      -2.71794340       0.00000000
H        2.39224354       0.59435695       2.69536859       0.00000000
H       -3.23281569       0.41555790      -1.85983762       0.00000000
