10
Lattice="16.2900001489832 0.0 0.0 0.0 16.2900001489832 0.0 0.0 0.0 29.20415829535462" Properties=species:S:1:pos:R:3:initial_magmoms:R:1 pbc="T T T"
Si       0.36929430      -0.22028967       2.32640588       0.00000000
Si       1.82172701       1.11550011      -1.03823703       0.00000000
Si      -1.64313973       1.09051614      -1.33258574       0.00000000
Si       0.29439288      -2.31436919      -0.54559209       0.00000000
Si      -0.75251656      -0.08389350      -3.31624899       0.00000000
Si       2.56891673      -2.27866151       0.31972713       0.00000000
Si       3.53699886      -0.46473741      -0.76693040       0.00000000
Si      -0.07708428      -2.31495563      -2.87917956       0.00000000
Si       1.10939788       1.26309892      -3.30742934       0.00000000
Si       2.08485938      -1.90633727       2.51931132       0.00000000
