10
Lattice="16.2900001489832 0.0 0.0 0.0 16.2900001489832 0.0 0.0 0.0 29.20415829535462" Properties=species:S:1:pos:R:3:initial_magmoms:R:1 pbc="T T T"
Si      -1.39120674       0.04727358      -1.90536690       0.00000000
Si      -0.90630181       1.63686808       1.44800058       0.00000000
Si      -0.57051490      -2.08388198       1.03140326       0.00000000
Si       1.95036099       0.83254933      -1.13691788       0.00000000
Si       0.56707608       2.84643318      -1.70701226       0.00000000
Si      -2.96081341      -1.89091096       0.53230419       0.00000000
Si       2.23454005      -0.93787884      -2.75073967       0.00000000
Si      -3.51633500      -0.16791732      -1.06066583       0.00000000
Si      -0.94018860       3.55452690       0.03676804       0.00000000
Si       0.17503116      -1.73679746       3.26038144       0.00000000
