10
Lattice="16.2900001489832 0.0 0.0 0.0 16.2900001489832 0.0 0.0 0.0 29.20415829535462" Properties=species:S:1:pos:R:3:initial_magmoms:R:1 pbc="T T T"
Si      -2.23741523       0.06429663      -0.79038134       0.00000000
Si       1.70181632       0.95218309      -1.47644543       0.00000000
Si       0.08324190       1.44655201       1.97828968       0.00000000
Si      -0.06450840      -2.49818555      -0.14213664       0.00000000
H       -3.01612611       1.32421411      -0.52745630       0.00000000
Si       1.90408925       0.26889903       2.85345069       0.00000000
Si      -0.62895691      -2.58486464      -2.50104412       0.00000000
Si      -2.06830874      -0.67504132      -3.00683093       0.00000000
Si      -3.40379553      -1.54914643       0.44679442       0.00000000
Si       0.43409592       2.30329199      -2.97669224       0.00000000
