10
Lattice="16.2900001489832 0.0 0.0 0.0 16.2900001489832 0.0 0.0 0.0 29.20415829535462" Properties=species:S:1:pos:R:3:initial_magmoms:R:1 pbc="T T T"
Si      -0.59538322      -1.92529883      -1.19488814       0.00000000
Si       2.33626295      -0.21620088       0.12709650       0.00000000
Si      -1.92345806       1.28148544       0.56127472       0.00000000
Si       0.24847952       1.54448749      -1.87768136       0.00000000
Si      -0.50979555      -0.90464887       2.60524455       0.00000000
Si      -2.86684455      -1.94502602      -0.66413176       0.00000000
Si      -0.81736705       3.34627554       0.97077543       0.00000000
Si       2.48712464      -2.33002388       1.12827345       0.00000000
Si       0.86333580      -3.53217702      -0.19990246       0.00000000
Si      -3.47529234       0.31926771      -1.12374681       0.00000000
