10
Lattice="16.2900001489832 0.0 0.0 0.0 16.2900001489832 0.0 0.0 0.0 29.20415829535462" Properties=species:S:1:pos:R:3:initial_magmoms:R:1 pbc="T T T"
Si       0.80819578       1.85609891      -1.22805238       0.00000000
Si      -1.33310845       1.23501007       1.52114531       0.00000000
Si      -1.35399223      -1.30570867      -1.44279055       0.00000000
Si       1.45422460      -1.40528944       1.28216768       0.00000000
Si       2.65610081       2.62107731       0.11627636       0.00000000
Si      -2.65605194       2.70598079       0.25421928       0.00000000
Si      -2.68723100      -2.71191035      -0.04681719       0.00000000
Si      -0.87539203       3.60155613      -0.99929971       0.00000000
Si       0.12834891      -2.77609296       2.70630262       0.00000000
Si      -0.02508660      -2.88780978      -2.59763979       0.00000000
