10
Lattice="16.2900001489832 0.0 0.0 0.0 16.2900001489832 0.0 0.0 0.0 29.20415829535462" Properties=species:S:1:pos:R:3:initial_magmoms:R:1 pbc="T T T"
Si       1.31362561       1.31966920      -1.40824788       0.00000000
Si       1.42762303      -1.40224321       1.24161479       0.00000000
Si      -1.31364190      -1.29026575      -1.49101538       0.00000000
Si      -1.35456238       1.41131674       1.34864803       0.00000000
Si       0.02091636      -2.80233615       2.53769534       0.00000000
Si      -2.67167405      -0.01731627       2.68844720       0.00000000
Si       2.83286361      -0.02417436       2.56476759       0.00000000
Si       2.68850162       2.72709263      -0.07706977       0.00000000
Si      -2.68734503      -2.72396495      -0.21578953       0.00000000
Si      -2.70659981       2.73268011      -0.09012403       0.00000000
