10
Lattice="16.2900001489832 0.0 0.0 0.0 16.2900001489832 0.0 0.0 0.0 29.20415829535462" Properties=species:S:1:pos:R:3:initial_magmoms:R:1 pbc="T T T"
H       -0.87210145       0.89637355       0.85810578       0.00000000
Si       1.35874891      -1.24203106       1.43234715       0.00000000
Si      -1.31354416      -1.34399017      -1.40022257       0.00000000
Si       1.45140643       1.43467660      -1.27963860       0.00000000
Si       2.36071424       0.48081564       2.71794340       0.00000000
Si      -2.76154599       0.18510327      -2.52207111       0.00000000
Si       2.79002091      -2.55578699       0.05534188       0.00000000
Si       0.11655495      -2.59537169      -2.78984404       0.00000000
Si      -2.11703213      -3.20857617      -0.17063990       0.00000000
Si       0.12233790       2.81366910      -2.67203446       0.00000000
