10
Lattice="16.2900001489832 0.0 0.0 0.0 16.2900001489832 0.0 0.0 0.0 29.20415829535462" Properties=species:S:1:pos:R:3:initial_magmoms:R:1 pbc="T T T"
Si      -1.51534468       1.52759476      -1.01697640       0.00000000
Si       1.37262799       0.21929598       1.94158006       0.00000000
Si      -1.98676100      -1.36014985       0.66556277       0.00000000
Si       1.82394245       0.57855565      -1.60590746       0.00000000
H       -1.41364621      -0.70717334      -3.21581589       0.00000000
Si      -2.55981062       0.02147511      -2.56111707       0.00000000
Si       1.81086158      -2.08292087       2.53051111       0.00000000
Si       3.70582842      -0.50886540      -0.62207778       0.00000000
Si      -2.64474668      -0.46680787       2.68724983       0.00000000
Si       3.52538409       0.95464288       1.22590295       0.00000000
