10
Lattice="16.2900001489832 0.0 0.0 0.0 16.2900001489832 0.0 0.0 0.0 29.20415829535462" Properties=species:S:1:pos:R:3:initial_magmoms:R:1 pbc="T T T"
Si      -2.12268476       1.05459832       0.13638342       0.00000000
Si       1.63590697       1.78088798      -0.12811864       0.00000000
Si       0.77344921      -0.84706372       2.16122453       0.00000000
Si      -0.57404332      -1.66151486      -1.76290902       0.00000000
H        2.24645618      -0.79685794       1.77783234       0.00000000
H       -1.14865678       0.84877417       2.97140629       0.00000000
H       -0.63959428       2.92459260       1.54560087       0.00000000
Si      -3.56557152      -0.75570940      -0.59424621       0.00000000
Si      -2.41393367       1.42700401       2.43734985       0.00000000
Si       0.51623010       3.63744300       0.84566481       0.00000000
