10
Lattice="16.2900001489832 0.0 0.0 0.0 16.2900001489832 0.0 0.0 0.0 29.20415829535462" Properties=species:S:1:pos:R:3:initial_magmoms:R:1 pbc="T T T"
Si       0.74704312      -1.11819448       1.05418250       0.00000000
Si      -0.05512536       1.39483126      -1.12301670       0.00000000
Si       0.47211678       0.06357987      -2.97803563       0.00000000
Si       2.03833188       0.30633345       2.41803130       0.00000000
Si       2.07351991      -2.45262242      -0.38496921       0.00000000
Si      -2.38453022       2.04066461      -1.14217463       0.00000000
Si       1.62257035       2.95435443      -0.29817446       0.00000000
Si      -0.71361604      -2.43434504       2.39259447       0.00000000
Si      -0.78121954      -1.94702969      -2.82042079       0.00000000
Si      -2.74121607       2.21237750       1.24360067       0.00000000
