10
Lattice="16.2900001489832 0.0 0.0 0.0 16.2900001489832 0.0 0.0 0.0 29.20415829535462" Properties=species:S:1:pos:R:3:initial_magmoms:R:1 pbc="T T T"
Si       0.63006463      -0.37760220       2.19110710       0.00000000
Si      -1.26291484       2.00050976      -0.19228018       0.00000000
Si       1.94694824      -0.31389201      -1.32659889       0.00000000
Si      -1.08647785      -1.73612306      -1.43225954       0.00000000
Si       0.35290656      -0.62454232      -3.01784090       0.00000000
Si      -2.37351818       1.42446277      -2.17687796       0.00000000
Si      -3.16195419      -0.69569704      -1.52872087       0.00000000
Si       2.88018606      -2.21568437      -0.27583328       0.00000000
Si       2.38510037      -2.01267839       2.05505077       0.00000000
Si      -1.21953457      -1.24409989       3.35943318       0.00000000
