10
Lattice="16.2900001489832 0.0 0.0 0.0 16.2900001489832 0.0 0.0 0.0 29.20415829535462" Properties=species:S:1:pos:R:3:initial_magmoms:R:1 pbc="T T T"
Si       0.02479338       1.58312737       1.66154138       0.00000000
Si       0.94565080      -1.84043933       1.19801298       0.00000000
Si       1.89441299      -0.12123018      -1.45422106       0.00000000
Si      -2.32614686      -0.04973337      -0.90161998       0.00000000
H       -0.16529463       2.50580927      -1.79444951       0.00000000
Si       2.54889632      -2.19461163      -0.45876812       0.00000000
Si      -0.91626364      -3.18743175       1.18919333       0.00000000
Si      -1.41459103       0.47154663       3.24712275       0.00000000
Si      -2.04196781      -1.82016154      -2.51544177       0.00000000
Si       1.00631476      -0.14204880      -3.61497833       0.00000000
