10
Lattice="16.2900001489832 0.0 0.0 0.0 16.2900001489832 0.0 0.0 0.0 29.20415829535462" Properties=species:S:1:pos:R:3:initial_magmoms:R:1 pbc="T T T"
Si       1.86191444       1.34699242       0.00881966       0.00000000
Si       0.67543228      -2.23106213       0.43706943       0.00000000
Si      -0.95855248      -0.38131632      -2.15243408       0.00000000
Si      -0.89062318       1.17440964       1.98366325       0.00000000
Si      -2.79272505      -1.45859032      -1.18332329       0.00000000
Si       0.75251656       0.08389350       3.31624899       0.00000000
Si       0.91626364       3.18743175      -1.18919333       0.00000000
Si      -1.37709145      -3.25967790      -0.49752204       0.00000000
Si       2.57424356       1.19939361       2.27801196       0.00000000
Si       1.04690944      -2.23047569       2.77065691       0.00000000
