10
Lattice="16.2900001489832 0.0 0.0 0.0 16.2900001489832 0.0 0.0 0.0 29.20415829535462" Properties=species:S:1:pos:R:3:initial_magmoms:R:1 pbc="T T T"
Si      -0.93323782       1.90179236      -1.05076562       0.00000000
Si      -0.89409295      -1.98002345      -0.93634372       0.00000000
Si       2.33248367      -0.33402645      -0.36508118       0.00000000
Si      -0.49508568       0.20300598       2.33088404       0.00000000
Si      -2.88018606       2.21568437       0.27583328       0.00000000
Si       0.82117891      -3.56026098      -0.66503709       0.00000000
Si       2.71019990      -2.54136871       0.34773391       0.00000000
Si      -2.25012143       1.83808217       2.46694038       0.00000000
Si       0.69937858       3.54092475      -1.40074825       0.00000000
Si       1.30144069       1.15489585       3.54102756       0.00000000
