10
Lattice="16.2900001489832 0.0 0.0 0.0 16.2900001489832 0.0 0.0 0.0 29.20415829535462" Properties=species:S:1:pos:R:3:initial_magmoms:R:1 pbc="T T T"
Si       1.36347301      -1.32304286      -1.37937080       0.00000000
Si      -1.30662091      -1.41798424       1.37983807       0.00000000
Si       1.39807297       1.33662709       1.37916638       0.00000000
Si      -1.35607735       1.34014573      -1.43915172       0.00000000
Si      -2.57263085       0.12144195       2.59759306       0.00000000
Si      -0.04204449      -2.67027311      -2.67079621       0.00000000
Si      -0.03152115       2.64992690       2.71443890       0.00000000
Si       2.68684004       2.69724935      -0.07152098       0.00000000
Si      -2.69584841       2.74962171      -0.11331213       0.00000000
Si       2.69457779      -2.76530898      -0.09324888       0.00000000
