10
Lattice="16.2900001489832 0.0 0.0 0.0 16.2900001489832 0.0 0.0 0.0 29.20415829535462" Properties=species:S:1:pos:R:3:initial_magmoms:R:1 pbc="T T T"
Si       1.29195991      -1.30665349      -1.49242010       0.00000000
Si      -1.32906853       1.37899250      -1.39239586       0.00000000
Si       1.46557873       1.33725752       1.32773785       0.00000000
Si      -1.45140643      -1.43467660       1.27963860       0.00000000
H       -2.32350788      -0.53830305       2.13774439       0.00000000
Si       2.62700687      -2.63324594      -0.09824279       0.00000000
Si      -0.09265752      -2.67670766       2.71198575       0.00000000
Si       0.15796413       2.69285105       2.71446811       0.00000000
Si      -2.78844078       0.04121370      -2.67127516       0.00000000
Si       2.76120390       2.70601337      -0.06997316       0.00000000
