10
Lattice="16.2900001489832 0.0 0.0 0.0 16.2900001489832 0.0 0.0 0.0 29.20415829535462" Properties=species:S:1:pos:R:3:initial_magmoms:R:1 pbc="T T T"
Si       2.23945148      -0.59153878      -0.20372821       0.00000000
Si      -0.15086169       2.11382300      -1.00117695       0.00000000
Si      -0.02432097       0.00252495       2.37753973       0.00000000
Si      -1.62378884      -1.20215314      -1.32817592       0.00000000
H       -0.87360501      -1.63165528      -2.73447295       0.00000000
H        0.98945461      -2.77622328       1.67015661       0.00000000
Si       2.01424223      -2.81636184       0.54559209       0.00000000
Si      -2.48712464       2.33002388      -1.12827345       0.00000000
Si       0.46460709       1.64108719      -3.19887748       0.00000000
Si      -2.99692020       1.42537501       1.47697110       0.00000000
