10
Lattice="16.2900001489832 0.0 0.0 0.0 16.2900001489832 0.0 0.0 0.0 29.20415829535462" Properties=species:S:1:pos:R:3:initial_magmoms:R:1 pbc="T T T"
Si       1.33289668      -1.42586371      -1.26296303       0.00000000
Si      -1.50267106       1.28313073      -1.23811029       0.00000000
Si       1.47447307       1.04488948       1.51076031       0.00000000
H        1.31931082       2.54881487       1.57308199       0.00000000
H       -2.11732535      -2.40494159       1.18627291       0.00000000
H       -2.79531516      -0.63913816       2.01564180       0.00000000
Si      -0.09839160       2.60438006      -2.61917494       0.00000000
Si       0.84377314       0.21220983       3.60577902       0.00000000
Si       2.61622289      -0.02994102      -2.65728636       0.00000000
Si      -0.06341697      -2.76236049      -2.60585784       0.00000000
