10
Lattice="16.2900001489832 0.0 0.0 0.0 16.2900001489832 0.0 0.0 0.0 29.20415829535462" Properties=species:S:1:pos:R:3:initial_magmoms:R:1 pbc="T T T"
Si       1.29791554      -1.56458935      -1.20201395       0.00000000
Si       1.42185149       1.33175638       1.34957672       0.00000000
Si      -1.37474569      -1.30424257       1.43447905       0.00000000
Si      -1.30725622       1.34003170      -1.46604875       0.00000000
Si      -2.66432726       2.66413178       0.01746409       0.00000000
Si       2.79072138       2.65999412      -0.08486728       0.00000000
Si       0.04543281       2.71751411       2.74016484       0.00000000
Si      -2.83581210      -2.62241309       0.12327075       0.00000000
Si      -0.02907765      -2.67157631       2.83838719       0.00000000
Si       2.72688086       0.00236205       2.81809614       0.00000000
