10
Lattice="16.2900001489832 0.0 0.0 0.0 16.2900001489832 0.0 0.0 0.0 29.20415829535462" Properties=species:S:1:pos:R:3:initial_magmoms:R:1 pbc="T T T"
Si      -0.78372820       1.22870584       1.82596079       0.00000000
Si      -1.41433039      -0.12724119      -1.87149008       0.00000000
Si       1.90242767       1.01053387      -1.02278803       0.00000000
Si       0.30138129      -2.22728285       0.94767494       0.00000000
Si      -2.37503152      -0.32708691       2.58664150       0.00000000
Si      -0.66072241      -2.28305981      -2.75117773       0.00000000
Si       1.87416452       0.04512330      -3.18964896       0.00000000
Si       0.84473425       0.92980063       3.57339160       0.00000000
Si       3.64091277       1.00567945       0.57611043       0.00000000
Si      -0.86552029      -2.14407353       3.10536576       0.00000000
