10
Lattice="16.2900001489832 0.0 0.0 0.0 16.2900001489832 0.0 0.0 0.0 29.20415829535462" Properties=species:S:1:pos:R:3:initial_magmoms:R:1 pbc="T T T"
Si      -1.31502655      -1.63541827       1.08671593       0.00000000
Si       0.91269613      -0.91494415      -1.99058463       0.00000000
Si      -1.41563359       1.80108758      -0.68580125       0.00000000
Si       2.05252373       1.02861577       0.93459147       0.00000000
Si       0.41853897       2.87836158      -1.65491204       0.00000000
Si       1.37709145       3.25967790       0.49752204       0.00000000
Si       1.18881163       1.19044063      -3.15291013       0.00000000
Si       2.64748340      -2.43204815      -1.21690807       0.00000000
Si      -0.17125677      -2.19949211       3.11173227       0.00000000
Si      -3.48778677      -0.80917318       1.76191607       0.00000000
