10
Lattice="16.2900001489832 0.0 0.0 0.0 16.2900001489832 0.0 0.0 0.0 29.20415829535462" Properties=species:S:1:pos:R:3:initial_magmoms:R:1 pbc="T T T"
Si       0.23341941       2.36652977       0.16804073       0.00000000
Si      -1.09169065      -0.92732455      -1.91462462       0.00000000
Si      -1.07046478      -0.98300377       1.90314738       0.00000000
Si       2.21803013      -0.81063928       0.58498849       0.00000000
H       -0.84769903      -3.13382136      -0.40246251       0.00000000
Si      -0.31685679      -3.13882239       1.02345973       0.00000000
H        3.40144977      -0.31485312      -0.19823783       0.00000000
H        2.96565969       1.10356606      -1.59957016       0.00000000
Si       2.24629328       0.15477129       2.75184943       0.00000000
Si       1.96863023       2.35118459       1.87043873       0.00000000
