10
Lattice="16.2900001489832 0.0 0.0 0.0 16.2900001489832 0.0 0.0 0.0 29.20415829535462" Properties=species:S:1:pos:R:3:initial_magmoms:R:1 pbc="T T T"
Si       0.13809033       2.30944961       0.19365277       0.00000000
Si      -0.46776735      -0.63416971      -2.25260434       0.00000000
Si       1.42847011      -1.29754738       1.53050232       0.00000000
Si      -2.39679659      -0.01873350       0.63212401       0.00000000
H       -2.92763883      -0.01373247      -0.79379823       0.00000000
H        1.32150997       2.80523577      -0.58957355       0.00000000
Si      -0.01625742      -3.04916223       1.13294612       0.00000000
H        0.06978636      -3.29181807      -0.34831800       0.00000000
Si      -2.20683890      -2.24101532       1.40118631       0.00000000
Si      -2.07993980       3.12008889      -0.39133572       0.00000000
