10
Lattice="16.2900001489832 0.0 0.0 0.0 16.2900001489832 0.0 0.0 0.0 29.20415829535462" Properties=species:S:1:pos:R:3:initial_magmoms:R:1 pbc="T T T"
Si       1.45712097       0.45410004       1.75251234       0.00000000
Si      -2.17033627      -0.81432082       0.30016034       0.00000000
Si       0.84180042      -1.41343444      -1.70134665       0.00000000
Si      -0.25673366       2.18657414      -1.04428229       0.00000000
Si      -2.58722995      -0.30853260      -1.95816802       0.00000000
Si       2.43310374       0.14235831      -2.46202736       0.00000000
H       -1.17032574      -1.46189719       2.96375480       0.00000000
Si      -2.28848764       1.97799698      -2.11370937       0.00000000
Si       0.31908689       2.13395744       3.01334346       0.00000000
Si       3.29129353       1.53137404       0.78340155       0.00000000
