10
Lattice="16.2900001489832 0.0 0.0 0.0 16.2900001489832 0.0 0.0 0.0 29.20415829535462" Properties=species:S:1:pos:R:3:initial_magmoms:R:1 pbc="T T T"
Si       1.28761048       0.44416314      -1.89961368       0.00000000
Si       0.37292697      -2.11768373       1.06691552       0.00000000
Si      -2.19447479       0.35969949      -0.92095313       0.00000000
Si       0.57404332       1.66151486       1.76290902       0.00000000
Si      -2.99152821       0.90580546       1.16866280       0.00000000
Si       3.10845783      -0.73348984      -1.02445267       0.00000000
Si      -1.54864144       2.71611317       1.89929243       0.00000000
Si       1.14934096       2.93897667      -1.98585356       0.00000000
Si      -1.34001541      -2.60180624       2.57528109       0.00000000
Si       2.31705704      -2.03302460       2.45551483       0.00000000
