10
Lattice="16.2900001489832 0.0 0.0 0.0 16.2900001489832 0.0 0.0 0.0 29.20415829535462" Properties=species:S:1:pos:R:3:initial_magmoms:R:1 pbc="T T T"
H       -0.15516225       1.50392539       0.06232167       0.00000000
Si      -0.63069994      -0.83267965       2.09501870       0.00000000
Si      -1.47447307      -1.04488948      -1.51076031       0.00000000
Si       2.28397205      -0.24565320      -0.53195374       0.00000000
H       -0.17275545       2.81940807      -1.55979409       0.00000000
Si       2.05975649       0.65006875      -2.79962743       0.00000000
Si       0.93172285       0.31268655       3.49205802       0.00000000
Si      -0.14157639      -2.47075319      -2.77372334       0.00000000
H       -0.21686877       3.73710522       0.10843504       0.00000000
Si       0.31350105       2.37296432      -2.91638566       0.00000000
