10
Lattice="16.2900001489832 0.0 0.0 0.0 16.2900001489832 0.0 0.0 0.0 29.20415829535462" Properties=species:S:1:pos:R:3:initial_magmoms:R:1 pbc="T T T"
Si      -1.31970178      -1.42724836      -1.34685197       0.00000000
Si       1.46065915       1.31615056      -1.33841197       0.00000000
Si      -1.38157120       1.38533419       1.36122626       0.00000000
Si       1.39005829      -1.37386603       1.37584878       0.00000000
H        0.71361604       2.43434504      -2.39259447       0.00000000
Si      -2.86088241      -0.09718614      -2.51858121       0.00000000
Si      -2.70619256      -2.72881937       0.07011918       0.00000000
Si      -0.01971090       2.67845069       2.79721809       0.00000000
Si       2.75194792       2.74067850       0.02543682       0.00000000
Si      -2.70744689       0.01453068       2.78536120       0.00000000
