10
Lattice="16.2900001489832 0.0 0.0 0.0 16.2900001489832 0.0 0.0 0.0 29.20415829535462" Properties=species:S:1:pos:R:3:initial_magmoms:R:1 pbc="T T T"
Si      -0.92077597       2.10126504      -0.19832544       0.00000000
Si       0.65798569      -0.89334198      -2.02168706       0.00000000
Si       0.92994724      -0.11723099       2.12717248       0.00000000
Si      -2.57378744      -0.58112295       1.75508230       0.00000000
Si      -3.05461612       1.07888834       0.03857869       0.00000000
Si       0.93564874      -3.08975528      -1.14027636       0.00000000
Si      -1.05946903       0.26601896       3.40170036       0.00000000
Si       1.98881354       1.94413170       2.30216380       0.00000000
Si       0.11209149       3.22692034       1.64486581       0.00000000
Si      -1.75050713      -2.87158331       1.70847246       0.00000000
