10
Lattice="16.2900001489832 0.0 0.0 0.0 16.2900001489832 0.0 0.0 0.0 29.20415829535462" Properties=species:S:1:pos:R:3:initial_magmoms:R:1 pbc="T T T"
Si      -0.80819578      -1.85609891       1.22805238       0.00000000
Si       1.84790504       0.76497841       1.34432874       0.00000000
Si       0.35668584      -0.17171289      -2.38577530       0.00000000
Si      -1.68358781       1.74545723       0.22875267       0.00000000
Si       0.20991294       2.18611802      -2.56205160       0.00000000
Si      -2.14130423      -0.62108884       2.74919769       0.00000000
Si       0.64829314       2.19181952       2.78938845       0.00000000
Si       2.68609070      -0.81754624      -2.36661738       0.00000000
H        2.74121607      -2.21237750      -1.24360067       0.00000000
Si      -2.03325266       2.55810180      -1.92394074       0.00000000
