10
Lattice="16.2900001489832 0.0 0.0 0.0 16.2900001489832 0.0 0.0 0.0 29.20415829535462" Properties=species:S:1:pos:R:3:initial_magmoms:R:1 pbc="T T T"
Si      -0.96184469      -0.17770272       2.11660058       0.00000000
Si       2.04317816      -1.23618458       0.33342388       0.00000000
Si      -0.18657426       2.31073489      -0.70571849       0.00000000
Si      -1.42365968      -1.29578969      -1.48035878       0.00000000
H       -0.87723606      -1.67388059       2.37108561       0.00000000
Si       3.20533935       0.13009520      -1.19085796       0.00000000
Si      -2.51150589       2.82432602      -0.51951277       0.00000000
Si       0.33625818       2.30716738      -3.05820105       0.00000000
Si       2.07667040       0.64768878      -3.17151318       0.00000000
Si      -3.27407337       0.35501449       1.99534491       0.00000000
