10
Lattice="16.2900001489832 0.0 0.0 0.0 16.2900001489832 0.0 0.0 0.0 29.20415829535462" Properties=species:S:1:pos:R:3:initial_magmoms:R:1 pbc="T T T"
Si      -0.14677290       2.35783091      -0.17627630       0.00000000
Si       2.32940486      -0.64583335       0.01915793       0.00000000
Si      -0.35668584       0.17171289       2.38577530       0.00000000
Si      -2.01197792      -0.92385478      -1.30954366       0.00000000
H        2.38453022      -2.04066461       1.14217463       0.00000000
Si      -2.38993850       2.72981469       0.46183456       0.00000000
Si      -2.04027365       1.91717012       2.61452797       0.00000000
Si      -3.51023439      -1.69147217       0.41519552       0.00000000
Si       2.85664701      -1.97708474      -1.83586100       0.00000000
Si       1.44577009       3.54358002       1.09930293       0.00000000
