10
Lattice="16.2900001489832 0.0 0.0 0.0 16.2900001489832 0.0 0.0 0.0 29.20415829535462" Properties=species:S:1:pos:R:3:initial_magmoms:R:1 pbc="T T T"
Si       0.74554607       0.34708452       2.22897818       0.00000000
Si       1.13803407      -1.67985740      -1.26083113       0.00000000
Si       0.57051490       2.08388198      -1.03140326       0.00000000
Si      -2.39029851       0.19297102      -0.49909907       0.00000000
Si      -0.67564568       2.20418363       2.77600127       0.00000000
Si      -0.31908689      -2.13395744      -3.01334346       0.00000000
Si       3.04013594       0.95314257       1.90615541       0.00000000
Si      -0.82069184       2.13115556      -2.93677016       0.00000000
Si      -0.33578691       3.72075006       0.41659732       0.00000000
Si       2.97220664      -0.60258340      -2.22994191       0.00000000
