10
Lattice="16.2900001489832 0.0 0.0 0.0 16.2900001489832 0.0 0.0 0.0 29.20415829535462" Properties=species:S:1:pos:R:3:initial_magmoms:R:1 pbc="T T T"
Si      -1.36960294      -1.36739890       1.37952267       0.00000000
Si       1.29054268       1.31742118       1.51035730       0.00000000
Si      -1.31815749       1.39838248      -1.41261390       0.00000000
Si       1.35736426      -1.33162606      -1.45686404       0.00000000
Si       2.57662190       2.72867276       0.17442768       0.00000000
Si      -2.60944625      -0.02614545      -2.77646269       0.00000000
Si       2.68731245      -2.70269021      -0.05396928       0.00000000
Si      -2.68004711      -2.71616204      -0.06220194       0.00000000
Si       2.71164971       0.18788886      -2.69089451       0.00000000
Si      -2.75028960       2.68206707      -0.01939156       0.00000000
