10
Lattice="16.2900001489832 0.0 0.0 0.0 16.2900001489832 0.0 0.0 0.0 29.20415829535462" Properties=species:S:1:pos:R:3:initial_magmoms:R:1 pbc="T T T"
Si       0.77871088      -1.25991748      -0.26292504       0.00000000
H       -0.67798981       1.76580344       0.82936889       0.00000000
H       -1.16660836       0.05737338      -1.79593892       0.00000000
Si      -0.38766942      -2.87336055       0.97425072       0.00000000
Si      -0.76403359       2.00845928       2.31063300       0.00000000
Si       0.94781737      -1.99925543      -2.47937463       0.00000000
Si       3.01612611      -1.32421411       0.52745630       0.00000000
Si       2.11732535       2.40494159      -1.18627291       0.00000000
Si      -2.04014333       1.02630259      -2.56716233       0.00000000
Si      -1.73133380      -1.65102410       2.49561214       0.00000000
