10
Lattice="16.2900001489832 0.0 0.0 0.0 16.2900001489832 0.0 0.0 0.0 29.20415829535462" Properties=species:S:1:pos:R:3:initial_magmoms:R:1 pbc="T T T"
H        0.05512536      -1.39483126       1.12301670       0.00000000
Si       0.52724214      -1.33125139      -1.85501893       0.00000000
Si      -2.32940486       0.64583335      -0.01915793       0.00000000
Si       1.67769571       1.55952316       0.82484225       0.00000000
H       -0.02805138      -0.63698788      -3.09149379       0.00000000
Si       0.80216848      -2.51302574       2.17719920       0.00000000
Si      -2.68609070       0.81754624       2.36661738       0.00000000
Si       0.54560097       2.90105355       2.40154415       0.00000000
Si      -0.72609418      -3.34186095      -1.69740409       0.00000000
Si      -2.47617776       3.00366426      -0.19543423       0.00000000
