10
Lattice="16.28999089631971 0.0 0.0 0.0 16.28999089631971 0.0 0.0 0.0 34.69518985606464" Properties=species:S:1:pos:R:3:initial_magmoms:R:1 pbc="T T T"
Si       0.79421243       1.93924631      -1.03060107       0.00000000
Si       1.47028001      -1.20306930       1.47243345       0.00000000
Si      -1.36088030      -1.38954093      -1.44964707       0.00000000
Si      -1.27216496       1.49773844       1.47425148       0.00000000
Si       2.80542470      -2.60091420      -0.01973810       0.00000000
Si       0.10738205      -2.55737103       2.85538450       0.00000000
Si      -1.00877617       3.51729119      -1.21559319       0.00000000
Si      -2.79708815      -2.66623710      -0.05138360       0.00000000
Si      -2.60558291       0.16154793       2.86371135       0.00000000
Si      -2.84317256       2.70751529      -0.02843619       0.00000000
