10
Lattice="16.28999089631971 0.0 0.0 0.0 16.28999089631971 0.0 0.0 0.0 34.69518985606464" Properties=species:S:1:pos:R:3:initial_magmoms:R:1 pbc="T T T"
Si      -0.23521620       1.34035749      -2.00978939       0.00000000
Si      -1.71618801      -1.71007533      -0.24140927       0.00000000
Si       2.30920850      -0.92768292       0.20109343       0.00000000
Si      -0.44360928       1.54280961       1.92322484       0.00000000
Si       2.25747146      -1.89548811       2.42734623       0.00000000
Si       1.20272654       0.33684462      -3.64400313       0.00000000
Si      -3.75571230      -0.65042712       0.57066680       0.00000000
Si       3.80153540       0.83505798      -0.59856175       0.00000000
Si      -0.96808554      -3.89361951       0.65934776       0.00000000
Si       1.18094681       3.29568921       2.09958059       0.00000000
