10
Lattice="16.28999089631971 0.0 0.0 0.0 16.28999089631971 0.0 0.0 0.0 34.69518985606464" Properties=species:S:1:pos:R:3:initial_magmoms:R:1 pbc="T T T"
Si      -0.96850796       1.62564426       1.40036804       0.00000000
Si       0.33040030       1.19861820      -2.01707538       0.00000000
Si       1.69519116      -0.97806789       1.38950844       0.00000000
Si      -1.06308770      -2.14469253      -0.48691257       0.00000000
Si      -1.85593829       2.08038191      -1.80411619       0.00000000
Si      -2.40471581       0.34894809       2.79863150       0.00000000
Si       0.25091813      -0.49902786      -3.69694802       0.00000000
Si       0.45148224      -2.38958010       2.85063268       0.00000000
Si       2.37339273      -2.90418120       0.00905545       0.00000000
Si      -0.98487941      -2.37161223      -2.94791315       0.00000000
