10
Lattice="16.28999089631971 0.0 0.0 0.0 16.28999089631971 0.0 0.0 0.0 34.69518985606464" Properties=species:S:1:pos:R:3:initial_magmoms:R:1 pbc="T T T"
Si      -0.94004703      -2.13843717       0.45180101       0.00000000
Si       2.05434819      -0.18990882      -1.20350742       0.00000000
Si      -2.05509753       0.30191886      -1.25173376       0.00000000
Si       0.60818715       1.80876015       1.58598741       0.00000000
Si       2.35530594       2.13961005      -1.45088426       0.00000000
Si      -0.81818154      -3.04150753      -1.76428609       0.00000000
Si       3.35881881      -1.64077767       0.18315601       0.00000000
Si      -2.98794438      -1.69280793       1.55635770       0.00000000
Si       0.24377985       3.08646630      -2.25074761       0.00000000
Si      -3.83551308       0.19010430       0.42435710       0.00000000
