10
Lattice="16.28999089631971 0.0 0.0 0.0 16.28999089631971 0.0 0.0 0.0 34.69518985606464" Properties=species:S:1:pos:R:3:initial_magmoms:R:1 pbc="T T T"
Si      -1.35635427      -1.35599589       1.35810927       0.00000000
Si      -1.35602847       1.35900954      -1.35658268       0.00000000
Si       1.35913986       1.35897696       1.35776232       0.00000000
Si       1.36415718      -1.35819504      -1.36098897       0.00000000
Si       0.01379763       2.70694188      -2.71313761       0.00000000
Si      -2.71182888       0.00144981       2.71517769       0.00000000
Si       2.71515204       2.71394658       0.00027756       0.00000000
Si       0.00138465      -2.71352304       2.71562872       0.00000000
Si      -2.71366965       2.71583622       0.00065921       0.00000000
Si      -2.71511946      -2.71448415       0.00117964       0.00000000
