10
Lattice="16.28999089631971 0.0 0.0 0.0 16.28999089631971 0.0 0.0 0.0 34.69518985606464" Properties=species:S:1:pos:R:3:initial_magmoms:R:1 pbc="T T T"
Si       1.35826020      -1.35674523      -1.36456258       0.00000000
Si      -1.35913986      -1.34037378       1.38291635       0.00000000
Si      -1.35527913       1.36226754      -1.36702594       0.00000000
Si       1.36752921       1.36906047       1.37143223       0.00000000
Si      -2.70210375       2.70850572      -0.01308009       0.00000000
Si       2.71464705      -2.70695817      -0.00301848       0.00000000
Si      -2.70961344      -2.71337643      -0.00343483       0.00000000
Si       2.70920619       2.72275947      -0.01262906       0.00000000
Si      -2.71119357       0.00226431      -2.72232490       0.00000000
Si       0.00201996      -2.71270854      -2.72187386       0.00000000
