10
Lattice="16.28999089631971 0.0 0.0 0.0 16.28999089631971 0.0 0.0 0.0 34.69518985606464" Properties=species:S:1:pos:R:3:initial_magmoms:R:1 pbc="T T T"
Si      -0.35515458       0.79772130       2.15044376       0.00000000
Si       0.80876592       1.78048071      -1.28396561       0.00000000
Si      -1.93789098      -0.84748725      -1.19341111       0.00000000
Si      -0.47882826      -2.12646402      -2.76361220       0.00000000
Si       2.24784081       0.58297023      -2.77509631       0.00000000
Si      -2.66652639       0.56493720       2.68821951       0.00000000
Si       0.95868279      -3.46802697      -1.37004442       0.00000000
Si       1.46745207       3.72672846      -0.11102467       0.00000000
Si      -3.02073778      -2.69451261      -0.03688101       0.00000000
Si       1.38046347       0.19477953       3.80661958       0.00000000
