10
Lattice="16.28999089631971 0.0 0.0 0.0 16.28999089631971 0.0 0.0 0.0 34.69518985606464" Properties=species:S:1:pos:R:3:initial_magmoms:R:1 pbc="T T T"
Si       1.00655910       2.03947542       0.65844568       0.00000000
Si      -1.66320900      -0.58253040       1.61228637       0.00000000
Si       1.76194269      -1.63489698       0.01894358       0.00000000
Si      -1.35255870       0.54708336      -1.98543335       0.00000000
Si      -3.40578288      -1.34635221       0.18801334       0.00000000
Si      -0.75290751       3.59183097       0.68359971       0.00000000
Si      -3.58326243       0.51403095      -1.22515723       0.00000000
Si       2.42031933       2.83366179      -1.09723599       0.00000000
Si       3.78532359      -0.51127794      -0.81610071       0.00000000
Si       1.15375554      -3.44365713      -1.56704382       0.00000000
