10
Lattice="16.28999089631971 0.0 0.0 0.0 16.28999089631971 0.0 0.0 0.0 34.69518985606464" Properties=species:S:1:pos:R:3:initial_magmoms:R:1 pbc="T T T"
Si      -2.09982987       0.79174287       0.75843727       0.00000000
Si       1.11386133      -0.23864850       2.12483870       0.00000000
Si       1.11861801       1.61653815      -1.41886058       0.00000000
Si      -0.38019231      -1.78061103      -1.82392715       0.00000000
Si      -3.10381515       0.83546523      -1.46313167       0.00000000
Si       2.93301450       0.27531729      -2.12997359       0.00000000
Si       1.72761966      -1.60016670      -2.92130192       0.00000000
Si      -0.60043311      -1.17788103       3.52553430       0.00000000
Si      -2.61188973      -1.88822277       2.07869407       0.00000000
Si      -2.45395818      -0.96769116      -2.82082460       0.00000000
