10
Lattice="16.28999089631971 0.0 0.0 0.0 16.28999089631971 0.0 0.0 0.0 34.69518985606464" Properties=species:S:1:pos:R:3:initial_magmoms:R:1 pbc="T T T"
Si       1.35690813       1.35500220       1.35488262       0.00000000
Si      -1.35803214      -1.35459495       1.35654799       0.00000000
Si       1.35702216      -1.35707103      -1.35616634       0.00000000
Si      -1.35786924       1.35751086      -1.35575000       0.00000000
Si      -2.70485676      -0.00835677       2.71049383       0.00000000
Si       2.70645318       0.00589698       2.71094487       0.00000000
Si       2.71303434      -0.00210141      -2.71365110       0.00000000
Si      -0.00236205       2.71391400      -2.71288780       0.00000000
Si      -2.71394658      -2.71459818       0.00124903       0.00000000
Si       2.71360449       2.71520091       0.00062451       0.00000000
