10
Lattice="16.28999089631971 0.0 0.0 0.0 16.28999089631971 0.0 0.0 0.0 34.69518985606464" Properties=species:S:1:pos:R:3:initial_magmoms:R:1 pbc="T T T"
Si       0.55789992       2.27581074      -0.25421180       0.00000000
Si       0.86327226      -1.56801024      -1.56031295       0.00000000
Si       0.78969033      -0.54757206       2.18645739       0.00000000
Si      -2.39516757      -0.17405865       0.27416154       0.00000000
Si      -1.02449439       3.09418776       1.29225776       0.00000000
Si       0.19003914      -3.59231967      -0.48257567       0.00000000
Si       2.45337174       2.52960894       1.07957613       0.00000000
Si       1.52239824       1.52811603       2.99034539       0.00000000
Si      -2.61526176      -1.94307120       1.82743137       0.00000000
Si      -3.06574542       2.08601595       0.62035034       0.00000000
