10
Lattice="16.28999089631971 0.0 0.0 0.0 16.28999089631971 0.0 0.0 0.0 34.69518985606464" Properties=species:S:1:pos:R:3:initial_magmoms:R:1 pbc="T T T"
Si       0.99807201      -2.11243833       0.50738274       0.00000000
Si      -2.06622360      -0.56392722      -1.12228593       0.00000000
Si       1.76520069       0.49348926      -1.58043617       0.00000000
Si      -0.01192428       1.22860809       2.10030919       0.00000000
Si       2.96060976      -1.16809074      -0.41127701       0.00000000
Si      -2.29987107       1.37285604       2.57369062       0.00000000
Si      -3.45085731      -1.50586389       0.59436363       0.00000000
Si       0.88477506       0.32521356      -3.79523955       0.00000000
Si      -2.78042607       1.22903163      -2.51592310       0.00000000
Si       2.93206968       2.50732422      -1.17817992       0.00000000
