10
Lattice="16.28999089631971 0.0 0.0 0.0 16.28999089631971 0.0 0.0 0.0 34.69518985606464" Properties=species:S:1:pos:R:3:initial_magmoms:R:1 pbc="T T T"
Si       1.35731538      -1.35734796      -1.35692963       0.00000000
Si       1.35687555       1.35734796       1.35800519       0.00000000
Si      -1.35770634       1.35769005      -1.35713780       0.00000000
Si      -1.35871632      -1.35772263       1.35873378       0.00000000
Si      -0.00182448       2.71215949      -2.71451848       0.00000000
Si       2.71336014       0.00063531      -2.71378988       0.00000000
Si       2.71394658      -2.71480995      -0.00038165       0.00000000
Si       2.71440270       2.71526585       0.00034695       0.00000000
Si      -0.00201996      -2.71609686      -2.71389396       0.00000000
Si      -2.71544526      -2.71467963       0.00024287       0.00000000
