10
Lattice="16.28999089631971 0.0 0.0 0.0 16.28999089631971 0.0 0.0 0.0 34.69518985606464" Properties=species:S:1:pos:R:3:initial_magmoms:R:1 pbc="T T T"
Si      -1.35244467      -1.34141634      -1.37854475       0.00000000
Si       1.36417347       1.37327847      -1.37920396       0.00000000
Si       1.00268208      -1.74597849       1.29631710       0.00000000
Si      -1.32833547       1.36319607       1.52360542       0.00000000
Si       2.13029217      -0.46222875       2.96650978       0.00000000
Si      -2.69771034       2.69338438      -0.01679248       0.00000000
Si       2.71301805       2.70561980      -0.01509242       0.00000000
Si      -2.71411925      -2.71770957      -0.00385117       0.00000000
Si       0.00623907      -2.70422145      -2.73634176       0.00000000
Si       2.72981304      -2.71567332      -0.00936771       0.00000000
