10
Lattice="16.28999089631971 0.0 0.0 0.0 16.28999089631971 0.0 0.0 0.0 34.69518985606464" Properties=species:S:1:pos:R:3:initial_magmoms:R:1 pbc="T T T"
Si      -1.57936437       0.01260846       1.74034639       0.00000000
Si       1.79079228      -1.21279050       1.00543247       0.00000000
Si       0.81288729       2.16467289      -0.61684613       0.00000000
Si      -0.83193030      -1.33165863      -1.89047256       0.00000000
Si       2.77086384      -2.05118793      -0.94620775       0.00000000
Si       1.15740450      -2.38777191      -2.56591889       0.00000000
Si      -3.45251889       1.12897260       0.80766978       0.00000000
Si       2.73321765       1.77211809      -1.97381045       0.00000000
Si      -0.91996146       3.38645384      -1.72240897       0.00000000
Si      -0.92967030       1.35888966       3.61437342       0.00000000
