10
Lattice="16.28999089631971 0.0 0.0 0.0 16.28999089631971 0.0 0.0 0.0 34.69518985606464" Properties=species:S:1:pos:R:3:initial_magmoms:R:1 pbc="T T T"
Si       0.98007156      -0.83839743      -1.95164022       0.00000000
Si      -1.79079228       1.21279050      -1.00543247       0.00000000
Si       2.02137723       0.84229074       0.98614193       0.00000000
Si      -0.14476923      -1.56783105       1.81636359       0.00000000
Si       2.19351366      -1.28213703       2.01148945       0.00000000
Si       2.23093179       1.08437643      -2.47380311       0.00000000
Si      -3.37015665       1.22539896       0.73491392       0.00000000
Si      -0.63338778      -1.17498141      -3.57135136       0.00000000
Si      -0.97790499       3.37746339      -1.62227859       0.00000000
Si      -2.62272258      -0.11886813      -2.89590503       0.00000000
