10
Lattice="16.28999089631971 0.0 0.0 0.0 16.28999089631971 0.0 0.0 0.0 34.69518985606464" Properties=species:S:1:pos:R:3:initial_magmoms:R:1 pbc="T T T"
Si      -1.33014366       1.03372497      -1.77299458       0.00000000
Si       2.17958571       1.12296648       0.09690372       0.00000000
Si      -0.31232817      -0.04235400       2.46401907       0.00000000
Si       0.19557774      -2.44494981      -0.42324686       0.00000000
Si       1.34742735      -2.01603411       2.75705103       0.00000000
Si      -3.44994507       1.72909946      -0.94419542       0.00000000
Si       3.42467928       1.11065287      -1.90573845       0.00000000
Si      -1.94931027      -3.48035850      -0.96594932       0.00000000
Si      -0.49902786       3.18133016      -2.55648180       0.00000000
Si      -1.97983773      -0.31255623      -3.64702162       0.00000000
