10
Lattice="16.28999089631971 0.0 0.0 0.0 16.28999089631971 0.0 0.0 0.0 34.69518985606464" Properties=species:S:1:pos:R:3:initial_magmoms:R:1 pbc="T T T"
Si       1.69997553       1.08676063       1.25779432       0.00000000
Si      -1.07087202      -1.68011771       1.31595043       0.00000000
Si       1.10482038      -1.41807677      -1.82798861       0.00000000
Si      -1.66952952       1.98375482      -0.09888347       0.00000000
Si      -2.02725792       0.48521329      -2.66577383       0.00000000
Si      -2.19351366      -0.14240687       2.67444135       0.00000000
Si       2.38342248       2.87436170      -0.22305762       0.00000000
Si       0.52730730       2.57153060       2.67010444       0.00000000
Si      -3.53993103       1.04920241       1.13460898       0.00000000
Si      -2.85941628      -2.65378730      -0.00562652       0.00000000
