10
Lattice="16.28999089631971 0.0 0.0 0.0 16.28999089631971 0.0 0.0 0.0 34.69518985606464" Properties=species:S:1:pos:R:3:initial_magmoms:R:1 pbc="T T T"
Si       1.34682462      -1.28467827       1.44501730       0.00000000
Si       1.75589910       1.00918179      -1.26111264       0.00000000
Si      -1.37736837       1.42589628       1.41847893       0.00000000
Si      -0.85001220      -1.87245405      -1.32397061       0.00000000
Si       3.20293980      -0.98184717      -1.44814477       0.00000000
Si       2.51949285      -2.76944824       0.03270717       0.00000000
Si       2.69322570       2.74664061       0.02898438       0.00000000
Si      -0.00503361      -2.63482768       2.80522563       0.00000000
Si      -1.13915970      -0.94555305      -3.57617543       0.00000000
Si       2.70948312       0.07672590       2.80300514       0.00000000
