10
Lattice="16.28999089631971 0.0 0.0 0.0 16.28999089631971 0.0 0.0 0.0 34.69518985606464" Properties=species:S:1:pos:R:3:initial_magmoms:R:1 pbc="T T T"
Si       1.33639902       1.34646624      -1.37676488       0.00000000
Si       1.35304740      -1.35905841       1.35987873       0.00000000
Si      -1.36127385       1.35493704       1.35915013       0.00000000
Si      -1.37472939      -1.36686132      -1.38390169       0.00000000
Si       2.71138905       2.71396287      -0.00287970       0.00000000
Si       2.71212210      -2.71603170       0.00062451       0.00000000
Si       2.71217097      -0.00026064       2.71628793       0.00000000
Si      -2.71226871      -2.71720458      -0.00211641       0.00000000
Si      -2.71446786       2.71515204      -0.00010409       0.00000000
Si      -0.00229689       2.71450044       2.71670427       0.00000000
