10
Lattice="16.28999089631971 0.0 0.0 0.0 16.28999089631971 0.0 0.0 0.0 34.69518985606464" Properties=species:S:1:pos:R:3:initial_magmoms:R:1 pbc="T T T"
Si      -1.23672051       1.31470074       1.44851805       0.00000000
Si      -1.88571411      -0.98442099      -1.09637971       0.00000000
Si       0.67979799       1.84591764      -1.48683686       0.00000000
Si       1.49822388      -1.41281541       1.39790468       0.00000000
Si       0.15773607       0.45093978      -3.52285583       0.00000000
Si      -2.74750724       2.44253889      -0.01083531       0.00000000
Si       2.69125461       2.55625938      -0.03999664       0.00000000
Si      -2.56862023      -0.05054787       2.79560812       0.00000000
Si       0.14279814       2.66385483       2.79897355       0.00000000
Si       0.14291217      -2.76408068       2.79328354       0.00000000
