10
Lattice="16.28999089631971 0.0 0.0 0.0 16.28999089631971 0.0 0.0 0.0 34.69518985606464" Properties=species:S:1:pos:R:3:initial_magmoms:R:1 pbc="T T T"
Si       0.05680323       1.87071102       1.36320947       0.00000000
Si      -1.41970608      -1.35742941       1.25121333       0.00000000
Si      -1.95936120       0.96609474      -1.07090233       0.00000000
Si       2.15265834      -0.63410454      -1.06052846       0.00000000
Si       2.52056799       1.68785577      -1.30100096       0.00000000
Si      -1.10802951      -3.11391495      -0.14072377       0.00000000
Si       2.02064418       2.89385334       0.71617851       0.00000000
Si      -1.10560230       1.99378197      -2.99437003       0.00000000
Si      -3.16475604      -0.90938925      -1.86223066       0.00000000
Si       0.77397048       1.51464420       3.55415299       0.00000000
