10
Lattice="16.28999089631971 0.0 0.0 0.0 16.28999089631971 0.0 0.0 0.0 34.69518985606464" Properties=species:S:1:pos:R:3:initial_magmoms:R:1 pbc="T T T"
Si      -1.35612621      -1.35628911       1.35706841       0.00000000
Si      -1.35257499       1.35876519      -1.36154410       0.00000000
Si       1.35905841       1.35935163       1.35696433       0.00000000
Si       1.35755973      -1.35682668      -1.36251556       0.00000000
Si      -2.71453302       0.00144981       2.71378988       0.00000000
Si       0.00185706      -2.71422351       2.71437970       0.00000000
Si       2.71621089       2.71406061      -0.00065921       0.00000000
Si      -2.71510317      -2.71585251      -0.00048573       0.00000000
Si       0.00180819       2.71639008       2.71500421       0.00000000
Si       2.71647153      -2.71494027      -0.00020817       0.00000000
