10
Lattice="16.28999089631971 0.0 0.0 0.0 16.28999089631971 0.0 0.0 0.0 34.69518985606464" Properties=species:S:1:pos:R:3:initial_magmoms:R:1 pbc="T T T"
Si      -2.31697557       0.56452995       0.19158695       0.00000000
Si       0.78266934       0.82679895       2.15752159       0.00000000
Si      -0.24011460      -2.36405367      -0.56303386       0.00000000
Si       2.52136620       1.93176594      -1.13664975       0.00000000
Si       0.29442546       0.54929880      -3.45689187       0.00000000
Si      -2.99020869      -1.45977948       1.26932423       0.00000000
Si      -2.61135216       1.44977742      -2.05631566       0.00000000
Si       2.90116755      -0.17285319       2.38879985       0.00000000
Si       1.87141149      -3.31090992       0.23682950       0.00000000
Si       1.24416504      -2.85728229      -2.34400834       0.00000000
