10
Lattice="16.28999089631971 0.0 0.0 0.0 16.28999089631971 0.0 0.0 0.0 34.69518985606464" Properties=species:S:1:pos:R:3:initial_magmoms:R:1 pbc="T T T"
Si       1.51078673      -1.12783815       1.45935336       0.00000000
Si      -0.94119547      -1.84891500      -1.27053652       0.00000000
Si      -1.19794836       1.57384206       1.41912774       0.00000000
Si       1.73479052       1.13151969      -1.31744444       0.00000000
Si      -0.09125169       1.88180451      -2.67309035       0.00000000
Si       2.74750724      -2.44253889       0.01083531       0.00000000
Si       0.86179313      -3.42695988      -1.08554440       0.00000000
Si       0.17888701      -2.49308676       2.80644343       0.00000000
Si       3.42730523      -0.59662125      -1.47600155       0.00000000
Si      -2.53736691       0.21988242       2.80908027       0.00000000
