10
Lattice="16.28999089631971 0.0 0.0 0.0 16.28999089631971 0.0 0.0 0.0 34.69518985606464" Properties=species:S:1:pos:R:3:initial_magmoms:R:1 pbc="T T T"
Si       0.65405979       2.12406939      -0.89142401       0.00000000
Si       0.84628179      -0.21188403       2.25533401       0.00000000
Si       1.91111022      -1.66770504       0.16004900       0.00000000
Si      -1.91945070      -1.23110046      -1.56294979       0.00000000
Si      -0.10505421      -2.57232132      -2.27406279       0.00000000
Si       3.17584953       1.62310302      -0.36079548       0.00000000
Si      -0.89197524      -1.35255870       3.35163150       0.00000000
Si      -0.55535868       2.26525482      -2.94246600       0.00000000
Si       3.87495117      -0.64456272      -0.48698196       0.00000000
Si       2.62827747      -2.02377186       2.35099252       0.00000000
