10
Lattice="16.28999089631971 0.0 0.0 0.0 16.28999089631971 0.0 0.0 0.0 34.69518985606464" Properties=species:S:1:pos:R:3:initial_magmoms:R:1 pbc="T T T"
Si       1.35428544       1.35542574       1.35668677       0.00000000
Si       1.35725022      -1.35703845      -1.35803988       0.00000000
Si      -1.35786924       1.35796698      -1.35776232       0.00000000
Si      -1.36265850      -1.36076886       1.35720720       0.00000000
Si      -0.00153126       2.71480455      -2.71389396       0.00000000
Si      -2.71342530       0.00213399       2.71528177       0.00000000
Si       2.71474479       2.71473804      -0.00045104       0.00000000
Si       2.71565703      -2.71420722      -0.00031226       0.00000000
Si       2.71440270      -0.00232947      -2.71566342       0.00000000
Si      -2.71588509       2.71513553      -0.00048573       0.00000000
