10
Lattice="16.28999089631971 0.0 0.0 0.0 16.28999089631971 0.0 0.0 0.0 34.69518985606464" Properties=species:S:1:pos:R:3:initial_magmoms:R:1 pbc="T T T"
Si      -1.35368271      -1.35417141      -1.35842153       0.00000000
Si      -1.35076680       1.36290285       1.35807458       0.00000000
Si       1.36614456      -1.35184194       1.36192574       0.00000000
Si       1.36265850       1.36076886      -1.35720720       0.00000000
Si      -2.71037907      -2.71437012      -0.00416343       0.00000000
Si      -2.71031391       0.00329058      -2.71496951       0.00000000
Si       0.00472410      -2.71191033      -2.71514299       0.00000000
Si      -2.71075374       2.71798650      -0.00003470       0.00000000
Si       2.71777473      -2.71235016       0.00194293       0.00000000
Si      -2.70277164      -0.00853596       2.72766796       0.00000000
