10
Lattice="16.28999089631971 0.0 0.0 0.0 16.28999089631971 0.0 0.0 0.0 34.69518985606464" Properties=species:S:1:pos:R:3:initial_magmoms:R:1 pbc="T T T"
Si       1.00048293      -1.46007270      -1.56017417       0.00000000
Si      -2.33828289      -0.28569402      -0.19512586       0.00000000
Si      -0.17213643       2.12442777      -1.02534752       0.00000000
Si       1.20941847      -0.14118543       2.05104199       0.00000000
Si      -2.19351366       1.28213703      -2.01148945       0.00000000
Si       0.55535868      -2.26525482       2.94246600       0.00000000
Si      -2.69684208      -2.61749349      -0.51633410       0.00000000
Si       3.33544266      -1.07738802      -1.58886711       0.00000000
Si      -3.38825484       0.37514241       1.94719923       0.00000000
Si      -0.15915330       3.93074509       0.46470763       0.00000000
