10
Lattice="16.28999089631971 0.0 0.0 0.0 16.28999089631971 0.0 0.0 0.0 34.69518985606464" Properties=species:S:1:pos:R:3:initial_magmoms:R:1 pbc="T T T"
Si      -1.20941847       0.14118543      -2.05104199       0.00000000
Si      -0.65405979      -2.12406939       0.89142401       0.00000000
Si       0.51841296       2.18095407       1.25409303       0.00000000
Si       2.52178974      -0.50096637       0.53062853       0.00000000
Si       3.02686119       0.12756699      -1.71061260       0.00000000
Si       2.20962447       0.86996745       2.63784206       0.00000000
Si       0.87845454       3.56834977      -0.78484033       0.00000000
Si      -0.20893554      -1.31888727      -3.61121616       0.00000000
Si       0.19222200      -2.33595342       3.14675802       0.00000000
Si      -1.38155490       2.26561320      -3.07638951       0.00000000
