10
Lattice="16.28999089631971 0.0 0.0 0.0 16.28999089631971 0.0 0.0 0.0 34.69518985606464" Properties=species:S:1:pos:R:3:initial_magmoms:R:1 pbc="T T T"
Si       2.18633859      -0.88176371      -0.21295919       0.00000000
Si      -1.48494753      -1.16519342      -1.44155125       0.00000000
Si      -0.45476793       2.33861358      -0.13624809       0.00000000
Si       1.85593829      -2.08038191       1.80411619       0.00000000
Si       0.88743033      -0.45473765       3.20448422       0.00000000
Si      -3.49948296      -0.15732214      -0.37779613       0.00000000
Si      -2.70966231       2.20497042       0.76378034       0.00000000
Si       0.73205631       2.84458098      -2.16005434       0.00000000
Si      -0.45897075      -0.65236793      -3.59751155       0.00000000
Si       3.66885728       0.96470520      -0.21774713       0.00000000
