10
Lattice="16.28999089631971 0.0 0.0 0.0 16.28999089631971 0.0 0.0 0.0 34.69518985606464" Properties=species:S:1:pos:R:3:initial_magmoms:R:1 pbc="T T T"
Si       1.34736219       1.35576783       1.38035931       0.00000000
Si      -1.38663738       1.31108436      -1.39459822       0.00000000
Si      -1.37037996      -1.35883035       1.37942254       0.00000000
Si       1.10913723      -1.52280549      -1.51210049       0.00000000
Si      -2.32396398      -0.42637446      -2.68469524       0.00000000
Si       2.68678074       2.70972747      -0.00959323       0.00000000
Si       2.68014483      -2.73258234      -0.00941281       0.00000000
Si       2.70265853      -0.00107514       2.73836449       0.00000000
Si      -2.74610304       2.70366759       0.00203314       0.00000000
Si      -0.01220121       2.71305063       2.73822571       0.00000000
