10
Lattice="16.28999089631971 0.0 0.0 0.0 16.28999089631971 0.0 0.0 0.0 34.69518985606464" Properties=species:S:1:pos:R:3:initial_magmoms:R:1 pbc="T T T"
Si      -2.22922134      -0.73010151      -0.19557689       0.00000000
Si       0.06457356       2.35037007      -0.25740376       0.00000000
Si       1.60671921      -0.87140097      -1.55427598       0.00000000
Si       0.09874998      -0.27564309       2.40469026       0.00000000
Si      -1.66223160       1.22668587       2.72464948       0.00000000
Si       2.67692660      -2.26038411       0.08191539       0.00000000
Si      -0.35464959       3.03490845       1.93672128       0.00000000
Si       2.28994136       2.77276977      -0.93458485       0.00000000
Si      -1.85223816       2.84374530      -1.61835804       0.00000000
Si      -1.68510276      -0.84792708      -3.29205493       0.00000000
