10
Lattice="16.28999089631971 0.0 0.0 0.0 16.28999089631971 0.0 0.0 0.0 34.69518985606464" Properties=species:S:1:pos:R:3:initial_magmoms:R:1 pbc="T T T"
Si      -0.41922315       0.68453838       2.19412503       0.00000000
Si       2.22536780       0.42239970      -0.67718109       0.00000000
Si      -0.06457356      -2.35037007       0.25740376       0.00000000
Si      -1.91681172       0.49337523      -1.36095428       0.00000000
Si       2.28839381      -1.12387968      -2.46696816       0.00000000
Si      -1.72680516      -1.12368420       2.98205323       0.00000000
Si      -0.97800273       1.32191721      -3.28136880       0.00000000
Si       0.03417642      -2.62601316       2.66209401       0.00000000
Si       1.54214565      -3.22177104      -1.29687223       0.00000000
Si       2.47390433       2.77601148      -0.94353622       0.00000000
