10
Lattice="16.28999089631971 0.0 0.0 0.0 16.28999089631971 0.0 0.0 0.0 34.69518985606464" Properties=species:S:1:pos:R:3:initial_magmoms:R:1 pbc="T T T"
Si       0.58106430       0.75517182      -2.14929882       0.00000000
Si       0.30462300      -2.33497602       0.21084279       0.00000000
Si      -2.33495973      -0.38268468       0.02869294       0.00000000
Si       0.90083700       1.06376958       1.92929650       0.00000000
Si      -2.03137929      -2.73250089       0.33380261       0.00000000
Si       0.26867097       3.10824603      -1.86094694       0.00000000
Si      -1.16007606      -0.00847080      -3.57069215       0.00000000
Si       3.12297219       0.20988036       2.08906794       0.00000000
Si      -3.08829078      -0.26138934      -2.20595610       0.00000000
Si      -3.33544266       1.07738802       1.58886711       0.00000000
