10
Lattice="16.28999089631971 0.0 0.0 0.0 16.28999089631971 0.0 0.0 0.0 34.69518985606464" Properties=species:S:1:pos:R:3:initial_magmoms:R:1 pbc="T T T"
Si      -1.96384095      -1.02314232       0.64703096       0.00000000
Si      -0.69910164       2.26766574       0.12618648       0.00000000
Si       0.49992381      -1.20599757      -2.01717947       0.00000000
Si       1.94989671       2.26922958       0.50571737       0.00000000
Si       2.23425024       0.51160374       2.31666851       0.00000000
Si      -1.24667370      -1.37920914       2.83797448       0.00000000
Si       2.02810500       2.04230988      -1.95528321       0.00000000
Si       2.70159617      -0.33443370      -2.32745872       0.00000000
Si      -0.19403019       2.89619910      -2.11505465       0.00000000
Si      -2.02064418      -2.89385334      -0.71617851       0.00000000
