10
Lattice="16.28999089631971 0.0 0.0 0.0 16.28999089631971 0.0 0.0 0.0 34.69518985606464" Properties=species:S:1:pos:R:3:initial_magmoms:R:1 pbc="T T T"
Si      -1.38370518       1.29326310       1.41765666       0.00000000
Si       0.89093268       1.41998301      -1.68702128       0.00000000
Si       1.34302905      -1.39422852       1.42152864       0.00000000
Si      -1.12646979      -1.78593786      -1.17810532       0.00000000
Si       2.51046819       2.54425365      -0.12915986       0.00000000
Si       2.61627174      -2.72992707      -0.01985607       0.00000000
Si       0.65552589      -3.59782569      -1.08244681       0.00000000
Si      -0.01655064       2.65750173       2.78250027       0.00000000
Si      -2.97597123       2.46892869       0.07316873       0.00000000
Si       2.70164763      -0.06146217       2.78867602       0.00000000
