10
Lattice="16.28999089631971 0.0 0.0 0.0 16.28999089631971 0.0 0.0 0.0 34.69518985606464" Properties=species:S:1:pos:R:3:initial_magmoms:R:1 pbc="T T T"
Si      -1.08170487       1.45530040      -1.42479346       0.00000000
Si       1.28283750       1.54490355       1.30148669       0.00000000
Si       1.64421486      -1.26172566      -1.38805124       0.00000000
Si      -1.57996710      -1.06696242       1.61395174       0.00000000
Si       2.08948572      -0.28636191       2.51401486       0.00000000
Si       0.10339263      -1.45147158       3.27498489       0.00000000
Si      -2.41315173       0.10103954      -2.77284112       0.00000000
Si      -2.71313208       2.53464974      -0.09142188       0.00000000
Si      -2.55565665      -2.77967673       0.20647119       0.00000000
Si       0.30470445      -2.61956232      -2.76905935       0.00000000
