10
Lattice="16.28999089631971 0.0 0.0 0.0 16.28999089631971 0.0 0.0 0.0 34.69518985606464" Properties=species:S:1:pos:R:3:initial_magmoms:R:1 pbc="T T T"
Si      -0.58106430      -0.75517182       2.14929882       0.00000000
Si      -1.74114036      -0.76364262      -1.42139333       0.00000000
Si      -0.31239333       2.35307421       0.28835188       0.00000000
Si       2.03952429      -1.05964821      -0.81207607       0.00000000
Si       1.12042620      -1.91168037      -2.92869200       0.00000000
Si      -1.00111824      -2.83775058      -2.22354657       0.00000000
Si      -3.66935508      -1.01656116      -0.05665728       0.00000000
Si      -2.91602403      -1.13785650       2.17799176       0.00000000
Si       3.75571230       0.65042712      -0.57066680       0.00000000
Si      -0.27644130      -3.09014784       2.36014161       0.00000000
