10
Lattice="16.28999089631971 0.0 0.0 0.0 16.28999089631971 0.0 0.0 0.0 34.69518985606464" Properties=species:S:1:pos:R:3:initial_magmoms:R:1 pbc="T T T"
Si      -1.28170697       0.26282286       2.01724886       0.00000000
Si      -1.70947928      -0.05833449      -1.76026144       0.00000000
Si       1.51607772       1.93979691       0.00773703       0.00000000
Si       1.74060279      -1.84489137      -0.13305613       0.00000000
Si      -0.53252010      -2.82577743       1.95833639       0.00000000
Si       2.89158903       1.03382856       1.84627086       0.00000000
Si       3.12523650      -0.90295470      -1.84970569       0.00000000
Si       0.23962590       0.31210011       3.91580540       0.00000000
Si       1.56781476       2.90760210      -2.21851576       0.00000000
Si       2.28985272      -0.77035410       3.22446866       0.00000000
