10
Lattice="16.28999089631971 0.0 0.0 0.0 16.28999089631971 0.0 0.0 0.0 34.69518985606464" Properties=species:S:1:pos:R:3:initial_magmoms:R:1 pbc="T T T"
Si       0.94016106       0.73981035      -2.05267266       0.00000000
Si       1.72897173      -0.96053985       1.45955806       0.00000000
Si      -0.67820157       1.92611331       1.38045299       0.00000000
Si      -1.16344809      -1.79489736      -1.43058756       0.00000000
Si      -1.92191049       0.51460110       2.84157723       0.00000000
Si       1.89076401      -2.92107393       0.09964464       0.00000000
Si      -3.43648043       0.75948867      -0.49596802       0.00000000
Si      -3.15212689      -0.99813717       1.31498313       0.00000000
Si       0.88677873      -2.87735157      -2.12192430       0.00000000
Si      -2.37339273       2.90418120      -0.00905545       0.00000000
