10
Lattice="16.28999089631971 0.0 0.0 0.0 16.28999089631971 0.0 0.0 0.0 34.69518985606464" Properties=species:S:1:pos:R:3:initial_magmoms:R:1 pbc="T T T"
Si      -1.34348797      -1.34146521       1.39809550       0.00000000
Si       1.36980279       1.37311668       1.38702773       0.00000000
Si       1.32153063      -1.47427758      -1.46773919       0.00000000
Si      -1.53466741       1.26425061      -1.51974037       0.00000000
Si      -2.70210655      -2.67423156       0.03094813       0.00000000
Si       2.71676913      -2.70712107       0.02755840       0.00000000
Si      -2.70564148       2.72244996       0.00817072       0.00000000
Si       0.01033801      -2.70036072       2.75426184       0.00000000
Si      -2.70235090       0.01286910       2.75308220       0.00000000
Si       2.73270075       2.72741841       0.00407669       0.00000000
