10
Lattice="16.28999089631971 0.0 0.0 0.0 16.28999089631971 0.0 0.0 0.0 34.69518985606464" Properties=species:S:1:pos:R:3:initial_magmoms:R:1 pbc="T T T"
Si      -1.35567009      -1.35350352       1.35692963       0.00000000
Si       1.36034532      -1.34920296      -1.35675616       0.00000000
Si       1.35930276       1.36163223       1.35689494       0.00000000
Si      -1.35613761       1.36199061      -1.36685246       0.00000000
Si       0.00156384      -2.71073745       2.71427561       0.00000000
Si      -2.71560239      -2.71148679       0.00038165       0.00000000
Si       2.71498914      -2.71215468       0.00013878       0.00000000
Si      -2.71380985       0.00431685       2.71378988       0.00000000
Si       2.69729820       0.00042354      -2.73245937       0.00000000
Si       2.71700910       0.00394218       2.71403274       0.00000000
