10
Lattice="16.28999089631971 0.0 0.0 0.0 16.28999089631971 0.0 0.0 0.0 34.69518985606464" Properties=species:S:1:pos:R:3:initial_magmoms:R:1 pbc="T T T"
Si      -1.21760161      -1.32615261      -1.63612198       0.00000000
Si      -2.10535774       1.07631288       0.79736530       0.00000000
Si       1.55739079       1.45341009      -1.58765278       0.00000000
Si       1.61841313      -0.90593577       2.12386723       0.00000000
Si      -1.50564139       2.74287992       2.36097429       0.00000000
Si      -2.65713262      -2.91975444      -0.49860485       0.00000000
Si       3.60300754       0.48798324       1.70110611       0.00000000
Si      -2.55062860       0.10094913      -3.10470080       0.00000000
Si       0.17160700      -2.62749555      -3.11510936       0.00000000
Si      -2.91200596       2.90757834      -0.41516287       0.00000000
