10
Lattice="16.28999089631971 0.0 0.0 0.0 16.28999089631971 0.0 0.0 0.0 34.69518985606464" Properties=species:S:1:pos:R:3:initial_magmoms:R:1 pbc="T T T"
Si       2.04125103       1.00817181       0.67190742       0.00000000
Si       0.67057785      -2.26007460      -0.34618880       0.00000000
Si      -1.43794274       1.00351287       1.63421375       0.00000000
Si      -0.87773126       0.46421613      -2.19422912       0.00000000
Si       1.44922356       3.16743316       0.12559666       0.00000000
Si      -0.31920255       3.14677418       1.65683502       0.00000000
Si      -2.18297517      -1.59624081      -2.43085045       0.00000000
Si       3.62364534       0.18979479      -0.87456214       0.00000000
Si       3.06574542      -2.08601595      -0.62035034       0.00000000
Si      -0.22248882      -2.95713999      -2.42720745       0.00000000
