10
Lattice="16.290000149 0.0 0.0 0.0 16.290000149 0.0 0.0 0.0 29.1751946751" Properties=species:S:1:pos:R:3:initial_magmoms:R:1 pbc="T T T"
Si      -1.34123716      -1.37924173       1.31518860       0.00000000
Si       1.30603447      -1.34579836      -1.42973042       0.00000000
Si       1.22986243       1.43384093       1.42439135       0.00000000
Si      -1.39913182       1.34553121      -1.35874717       0.00000000
Si       0.20334807      -2.70412373       2.50261902       0.00000000
Si       2.64337832       2.70700706       0.03080901       0.00000000
Si      -2.70780527      -0.00721647       2.65520529       0.00000000
Si      -0.29527254       2.75107152       2.61765682       0.00000000
Si       2.65849544       0.00661374      -2.76965958       0.00000000
Si      -0.06535548       2.71003700      -2.72966039       0.00000000
