10
Lattice="16.290000149 0.0 0.0 0.0 16.290000149 0.0 0.0 0.0 29.1751946751" Properties=species:S:1:pos:R:3:initial_magmoms:R:1 pbc="T T T"
Si       1.08954037      -1.42302925      -1.49175688       0.00000000
Si      -1.54458523       1.32488200      -1.18743042       0.00000000
Si      -1.04743072      -1.75972727       1.19116485       0.00000000
Si       2.12214719       0.97033015       0.68698831       0.00000000
Si       0.20960343       0.81783946       3.38840711       0.00000000
Si       2.40034781      -2.69408909      -0.05572462       0.00000000
Si      -0.20334807       2.70412373      -2.50261902       0.00000000
Si       2.49735476      -0.09067014      -2.73497027       0.00000000
Si      -1.41679018      -0.86384242       3.31975788       0.00000000
Si       0.57337543      -3.52473249       1.12762127       0.00000000
