10
Lattice="16.290000149 0.0 0.0 0.0 16.290000149 0.0 0.0 0.0 29.1751946751" Properties=species:S:1:pos:R:3:initial_magmoms:R:1 pbc="T T T"
Si      -1.34452118       1.35716878      -1.36834581       0.00000000
Si       1.32837951      -1.35016408      -1.39349482       0.00000000
Si      -1.34567777      -1.37169946       1.36006005       0.00000000
Si       1.34726451       1.37583712       1.35565460       0.00000000
Si       2.67389606      -2.70708851      -0.03290962       0.00000000
Si      -2.68901634       2.72258030      -0.01832202       0.00000000
Si      -2.72733042      -0.02542869       2.69675077       0.00000000
Si      -2.71169202      -2.71306694      -0.01000709       0.00000000
Si       2.70499367       2.72640845      -0.00002918       0.00000000
Si       2.72126738       0.03422529       2.71136754       0.00000000
