10
Lattice="16.290000149 0.0 0.0 0.0 16.290000149 0.0 0.0 0.0 29.1751946751" Properties=species:S:1:pos:R:3:initial_magmoms:R:1 pbc="T T T"
Si       1.03304665       1.10436427      -0.21913489       0.00000000
H       -0.49721967       1.54070821       1.83625758       0.00000000
Si      -2.18854523      -0.77900410      -1.13316456       0.00000000
Si      -0.96705586       0.25342353       2.48155453       0.00000000
Si       1.03905766      -1.11641887       2.40047667       0.00000000
Si      -0.53030466      -2.47138850      -1.37263456       0.00000000
Si      -0.17646957      -2.70663239       0.98956425       0.00000000
Si       2.19603374       0.93963979       1.80054714       0.00000000
Si       2.51313651       0.02081862      -1.64556851       0.00000000
Si      -0.22778307       2.74041786      -1.37768187       0.00000000
