10
Lattice="16.290000149 0.0 0.0 0.0 16.290000149 0.0 0.0 0.0 29.1751946751" Properties=species:S:1:pos:R:3:initial_magmoms:R:1 pbc="T T T"
Si       1.35513253      -1.36695907       1.33604886       0.00000000
Si      -1.35500221      -1.36770841      -1.33858711       0.00000000
Si       1.37650501       1.33674112      -1.36102283       0.00000000
Si      -1.37481085       1.34672689       1.36011840       0.00000000
Si       2.64565892       0.07179003       2.65044974       0.00000000
Si       0.03007134      -2.72276112      -2.67203938       0.00000000
Si      -2.68099519      -0.00772146      -2.71588970       0.00000000
Si      -2.69498667       2.70381422      -0.01665904       0.00000000
Si      -2.70160367      -2.72158661       0.03859878       0.00000000
Si       0.03758103       2.72000648      -2.70859590       0.00000000
