10
Lattice="16.290000149 0.0 0.0 0.0 16.290000149 0.0 0.0 0.0 29.1751946751" Properties=species:S:1:pos:R:3:initial_magmoms:R:1 pbc="T T T"
Si       1.41864724      -1.33076269      -1.30170966       0.00000000
Si       1.37267686       1.32589198       1.36461138       0.00000000
Si      -1.35018037      -1.37609776       1.34690204       0.00000000
Si      -1.35211888       1.31913163      -1.40697376       0.00000000
Si       0.10609677      -2.69045642      -2.64678825       0.00000000
Si       0.00329058       2.70415631       2.68747306       0.00000000
Si       2.75221182       2.64323171       0.00026258       0.00000000
Si      -2.71855667      -0.01182654       2.68298008       0.00000000
Si      -2.71477739       2.69262299      -0.05706668       0.00000000
Si       0.01484019       2.66890475      -2.75791073       0.00000000
