10
Lattice="16.290000149 0.0 0.0 0.0 16.290000149 0.0 0.0 0.0 29.1751946751" Properties=species:S:1:pos:R:3:initial_magmoms:R:1 pbc="T T T"
H       -0.89689483       0.74402947       0.97990726       0.00000000
Si       1.15326685       1.63765000      -1.18147868       0.00000000
Si       1.40277133      -1.17224470       1.45905149       0.00000000
Si      -1.59462811      -1.12619287      -1.34045432       0.00000000
Si      -1.98073370       2.45436545       1.76246797       0.00000000
Si      -0.61333480       2.79513597      -2.21378460       0.00000000
Si       2.61722147       0.42671655      -2.51954064       0.00000000
Si      -0.05685210      -2.35146152       2.87493244       0.00000000
Si      -2.22786929       2.96935752      -0.53626925       0.00000000
Si       2.86503961      -2.45153099       0.11521284       0.00000000
