10
Lattice="16.290000149 0.0 0.0 0.0 16.290000149 0.0 0.0 0.0 29.1751946751" Properties=species:S:1:pos:R:3:initial_magmoms:R:1 pbc="T T T"
Si      -0.92589103       1.04441707      -1.83529480       0.00000000
Si       1.07225668       1.75962953       1.06407770       0.00000000
Si       1.33493293      -1.54557892      -1.15580451       0.00000000
Si      -1.93800503      -1.02947914       0.90416846       0.00000000
H        0.51191325      -1.28365201       2.39913461       0.00000000
Si       0.69111955      -2.67132056       1.78855613       0.00000000
Si      -1.69922621      -1.00310563      -2.71055064       0.00000000
Si      -0.47591235      -2.87148068      -1.75812641       0.00000000
Si      -2.22560498       2.54011601      -0.51301662       0.00000000
Si      -1.20940219      -3.21987491       0.50309706       0.00000000
