10
Lattice="16.290000149 0.0 0.0 0.0 16.290000149 0.0 0.0 0.0 29.1751946751" Properties=species:S:1:pos:R:3:initial_magmoms:R:1 pbc="T T T"
Si      -1.33549982      -1.35102745       1.37024219       0.00000000
Si       1.35280306      -1.36239787      -1.35883469       0.00000000
Si      -1.40645092       1.33970590      -1.33126413       0.00000000
Si       1.34387614       1.34561429       1.38882679       0.00000000
Si       2.65028528       2.69433344      -0.03381405       0.00000000
Si      -2.71105498       0.04981808       2.66693372       0.00000000
Si      -0.05984946       2.69358410      -2.70845002       0.00000000
Si       2.71482626      -0.01070253      -2.70880012       0.00000000
Si      -2.71791809      -2.71019990       0.01651316       0.00000000
Si      -0.07092666       2.70440066       2.72630524       0.00000000
