10
Lattice="16.290000149 0.0 0.0 0.0 16.290000149 0.0 0.0 0.0 29.1751946751" Properties=species:S:1:pos:R:3:initial_magmoms:R:1 pbc="T T T"
Si      -1.33012738       1.31470075       1.41850672       0.00000000
Si      -1.42702030      -1.35962857      -1.27835463       0.00000000
Si       1.32928030      -1.39655800       1.36744721       0.00000000
Si       1.33486777       1.36510771      -1.40790445       0.00000000
Si       0.01760949      -2.55394622      -2.63547994       0.00000000
Si       2.63306675       2.64890063       0.09697543       0.00000000
Si      -2.60917584       2.68813347       0.03162591       0.00000000
Si      -2.74191165      -0.07623720       2.67440549       0.00000000
Si       2.66561417      -0.07152939       2.77258002       0.00000000
Si       2.71086779      -2.75296116       0.04202103       0.00000000
