10
Lattice="16.290000149 0.0 0.0 0.0 16.290000149 0.0 0.0 0.0 29.1751946751" Properties=species:S:1:pos:R:3:initial_magmoms:R:1 pbc="T T T"
Si       1.38699577       1.35931906      -1.30488976       0.00000000
Si       1.38179926      -1.34643367       1.33660319       0.00000000
Si      -1.31790988       1.37059174       1.38868092       0.00000000
Si      -1.33058350      -1.34460919      -1.41558045       0.00000000
Si       0.01707192       2.72063854      -2.61844455       0.00000000
Si      -2.67607724      -2.69257412      -0.04633021       0.00000000
Si       0.01646919      -2.69120576       2.68195895       0.00000000
Si      -2.66256306       2.73099409       0.03121746       0.00000000
Si       2.71112843       0.00777033      -2.68963202       0.00000000
Si      -2.69337722       0.02223585       2.73966748       0.00000000
