10
Lattice="16.290000149 0.0 0.0 0.0 16.290000149 0.0 0.0 0.0 29.1751946751" Properties=species:S:1:pos:R:3:initial_magmoms:R:1 pbc="T T T"
Si      -1.35641944       1.35063649      -1.30859501       0.00000000
Si       1.38474775       1.35755974       1.29625390       0.00000000
Si       1.35151615      -1.35550720      -1.33922896       0.00000000
Si      -1.35244468      -1.31185000       1.38666783       0.00000000
H       -0.45120042      -2.20990142       2.20123926       0.00000000
Si       2.58248630      -0.20681784       2.51682734       0.00000000
Si      -2.66895362      -0.08057034      -2.62956030       0.00000000
Si      -2.55813275       2.75268423       0.16428552       0.00000000
Si       0.02448387       2.60392394      -2.73199440       0.00000000
Si       2.59162499      -2.75206521       0.02573252       0.00000000
