10
Lattice="16.290000149 0.0 0.0 0.0 16.290000149 0.0 0.0 0.0 29.1751946751" Properties=species:S:1:pos:R:3:initial_magmoms:R:1 pbc="T T T"
Si       1.42540759       1.38479662       1.18142033       0.00000000
Si       1.43205391      -1.32118417      -1.28554660       0.00000000
Si      -1.32082579       1.44137179      -1.27778600       0.00000000
Si      -1.37520181      -1.33415101       1.34771894       0.00000000
Si       0.05146011      -2.65665467      -2.62051599       0.00000000
Si      -2.67239081       0.08469171      -2.62769308       0.00000000
Si      -2.56601711       0.11710881       2.75305890       0.00000000
Si       0.02709027      -2.60591132       2.71781526       0.00000000
Si       2.73621503       0.11373678       2.61745259       0.00000000
Si      -2.72989452      -2.67098987       0.03048808       0.00000000
