10
Lattice="16.290000149 0.0 0.0 0.0 16.290000149 0.0 0.0 0.0 29.1751946751" Properties=species:S:1:pos:R:3:initial_magmoms:R:1 pbc="T T T"
Si      -1.32063031      -1.34100910      -1.39370197       0.00000000
Si       1.35597961       1.31390254      -1.39978208       0.00000000
Si      -1.37898109       1.35917245       1.33593216       0.00000000
Si       1.35244468      -1.36765954       1.35585882       0.00000000
Si       2.69878061       2.68369607      -0.03626477       0.00000000
Si      -2.69553239      -2.70198974      -0.03279292       0.00000000
Si       0.09840789      -2.72280836      -2.67770520       0.00000000
Si      -0.01834254       2.71313210       2.68966120       0.00000000
Si       2.70071912      -0.01153332       2.71761103       0.00000000
Si      -0.01736514       2.66587481      -2.76027684       0.00000000
