10
Lattice="16.290000149 0.0 0.0 0.0 16.290000149 0.0 0.0 0.0 29.1751946751" Properties=species:S:1:pos:R:3:initial_magmoms:R:1 pbc="T T T"
Si       0.62517763       0.08350254       1.38824329       0.00000000
Si       1.39144294      -0.83763181      -1.59757531       0.00000000
H        2.13161168      -0.76271410      -0.28139475       0.00000000
Si      -0.46779993      -2.31435290      -1.78178749       0.00000000
Si      -1.08872587       0.52747020       2.91906575       0.00000000
H       -3.09218412      -0.64879813       0.73676119       0.00000000
Si       1.01615392       1.12218553      -2.94520673       0.00000000
Si       1.09768537      -1.94292461       2.45637634       0.00000000
H       -1.69407857      -2.68270238       1.19746669       0.00000000
Si       2.52485228       1.58490298       1.70645714       0.00000000
