10
Lattice="16.290000149 0.0 0.0 0.0 16.290000149 0.0 0.0 0.0 29.1751946751" Properties=species:S:1:pos:R:3:initial_magmoms:R:1 pbc="T T T"
Si      -1.36041049       1.35422844      -1.35084069       0.00000000
Si      -1.35874891      -1.36691020       1.33984164       0.00000000
Si       1.33402069       1.35288451       1.38284588       0.00000000
Si       1.35133696      -1.36023130      -1.35918479       0.00000000
Si       2.68457573       2.70563870       0.01000709       0.00000000
Si      -2.71347419       0.01280394       2.67787442       0.00000000
Si       0.02904507      -2.70466130       2.69039058       0.00000000
Si      -2.70741431      -0.03442077      -2.68916522       0.00000000
Si       2.66375711      -0.01172880       2.75933156       0.00000000
Si      -0.01062108       2.74212831      -2.68604347       0.00000000
