10
Lattice="16.290000149 0.0 0.0 0.0 16.290000149 0.0 0.0 0.0 29.1751946751" Properties=species:S:1:pos:R:3:initial_magmoms:R:1 pbc="T T T"
Si      -0.86247406      -0.97958287      -0.74338396       0.00000000
H        1.40164048       0.87689071       0.61212476       0.00000000
H        0.76274668      -0.76936042       1.70409395       0.00000000
Si       2.04652901       1.68911012      -0.47573072       0.00000000
Si      -1.14067468       2.68483637      -0.00067103       0.00000000
Si      -0.85954186       1.79447384       2.24363082       0.00000000
Si      -2.17328150       0.29147697      -2.17941622       0.00000000
Si       0.55003186      -2.42848064      -1.88180006       0.00000000
Si      -2.68944644      -1.81022627       0.43996194       0.00000000
Si       0.46053459       2.76675879      -1.79602498       0.00000000
