10
Lattice="16.290000149 0.0 0.0 0.0 16.290000149 0.0 0.0 0.0 29.1751946751" Properties=species:S:1:pos:R:3:initial_magmoms:R:1 pbc="T T T"
Si      -0.62656228       0.85902058      -1.07504757       0.00000000
Si       2.15252804       0.28035090       1.32146127       0.00000000
Si       2.27137988      -1.45419202      -0.48687565       0.00000000
Si       0.39793212       1.25732737       2.57628639       0.00000000
Si      -2.07277220       2.07552521       0.20425554       0.00000000
Si       0.44009064      -2.64669986      -1.49038564       0.00000000
Si      -2.06363351      -0.46972215      -2.28683928       0.00000000
Si      -0.66670084      -2.28740598       2.15120380       0.00000000
Si      -1.35855343      -0.23819238       2.91571061       0.00000000
Si      -1.30608334      -2.96377331       0.00425958       0.00000000
