10
Lattice="16.290000149 0.0 0.0 0.0 16.290000149 0.0 0.0 0.0 29.1751946751" Properties=species:S:1:pos:R:3:initial_magmoms:R:1 pbc="T T T"
Si      -1.48008987       1.08354565       1.42643362       0.00000000
Si      -1.41678692      -1.43907490      -1.16983778       0.00000000
Si       1.55586117      -1.08069490       1.36927941       0.00000000
Si       1.31516013       1.48810780      -1.26821654       0.00000000
H       -2.51313652      -0.02081862       1.64556851       0.00000000
Si       1.99187932       0.73638946       2.85137930       0.00000000
Si      -0.31710277       0.91882117       3.44611564       0.00000000
Si       0.01919451      -2.68371236      -2.53649143       0.00000000
Si      -2.70684091      -0.02125845      -2.52234146       0.00000000
Si       2.81892262       0.15208344      -2.51431828       0.00000000
