10
Lattice="16.290000149 0.0 0.0 0.0 16.290000149 0.0 0.0 0.0 29.1751946751" Properties=species:S:1:pos:R:3:initial_magmoms:R:1 pbc="T T T"
Si       0.88686019      -0.85222765       0.88441685       0.00000000
H       -1.91767511      -0.40075029      -1.23262280       0.00000000
Si       0.90546337       0.99074152      -2.06312389       0.00000000
Si      -0.99693172      -0.33252777      -2.43849195       0.00000000
Si      -0.71526133       2.52226869      -0.99329868       0.00000000
Si      -1.44875116       2.17387446       1.26792479       0.00000000
Si       1.91624159      -2.33777792      -0.59000996       0.00000000
Si      -0.50834574      -2.08720514       2.30898326       0.00000000
Si       2.78400990       0.44971803       1.51565136       0.00000000
Si       2.83778319      -0.50414292      -1.75480043       0.00000000
