10
Lattice="16.290000149 0.0 0.0 0.0 16.290000149 0.0 0.0 0.0 29.1751946751" Properties=species:S:1:pos:R:3:initial_magmoms:R:1 pbc="T T T"
Si      -1.36695907      -1.34977312       1.35093697       0.00000000
Si       1.30425886       1.29495727       1.47601103       0.00000000
Si      -1.37114560       1.41141448      -1.30470012       0.00000000
Si       1.36309834      -1.34775316      -1.39092157       0.00000000
Si       2.66001041       2.63551025       0.16074949       0.00000000
Si       2.71215470      -2.71003700      -0.01454092       0.00000000
Si      -0.01484019      -2.66890475       2.75791073       0.00000000
Si      -2.70976007      -2.71956665      -0.01258034       0.00000000
Si      -2.72961758       0.02371824       2.70084405       0.00000000
Si      -2.78213655       0.11372049      -2.64921971       0.00000000
