10
Lattice="16.290000149 0.0 0.0 0.0 16.290000149 0.0 0.0 0.0 29.1751946751" Properties=species:S:1:pos:R:3:initial_magmoms:R:1 pbc="T T T"
Si      -1.34387614      -1.34561429      -1.38882679       0.00000000
Si       1.30640914       1.34871916      -1.42264084       0.00000000
Si       1.42451164      -1.36737773       1.29426999       0.00000000
Si      -1.41480280       1.35878638       1.33747845       0.00000000
Si       0.07268598      -2.64935187       2.66713795       0.00000000
Si      -2.67937597      -2.69664174      -0.01858460       0.00000000
Si       2.59693553       2.78746826      -0.10823997       0.00000000
Si       2.67590945      -0.04746254       2.76429135       0.00000000
Si       2.73318510      -0.01463005      -2.71968247       0.00000000
Si      -0.10702530       2.83112546       2.61765682       0.00000000
