10
Lattice="16.290000149 0.0 0.0 0.0 16.290000149 0.0 0.0 0.0 29.1751946751" Properties=species:S:1:pos:R:3:initial_magmoms:R:1 pbc="T T T"
Si       0.97006951      -1.45095031      -1.51947331       0.00000000
Si      -1.69560983       0.93576277      -1.30016338       0.00000000
Si      -1.26796474      -1.47971845       1.32726713       0.00000000
Si       1.49951080       1.29015172       1.28761804       0.00000000
H       -1.16085799       1.20682837      -2.68225070       0.00000000
Si      -0.92960515      -2.95235076      -1.83768716       0.00000000
Si      -2.64350864      -2.50838309      -0.30686470       0.00000000
Si      -2.57497661      -0.05450634       2.63119002       0.00000000
H        0.09018144       2.97660657      -2.25398802       0.00000000
Si       0.15762204       2.64570779       2.63233515       0.00000000
