10
Lattice="16.290000149 0.0 0.0 0.0 16.290000149 0.0 0.0 0.0 29.1751946751" Properties=species:S:1:pos:R:3:initial_magmoms:R:1 pbc="T T T"
Si       1.42037398      -1.37187865       1.25689656       0.00000000
Si       1.36980982       1.32102127      -1.36782065       0.00000000
Si      -1.34359921       1.33421617       1.40131378       0.00000000
Si      -1.35979147      -1.37624437      -1.35305800       0.00000000
Si       0.10515195      -2.60205059       2.75232952       0.00000000
Si      -2.69278264       2.68648166       0.01674656       0.00000000
Si      -0.00447975       2.67511124      -2.71233032       0.00000000
Si       2.77767309       2.64372041      -0.01041554       0.00000000
Si      -2.81151882      -0.04266351       2.61713166       0.00000000
Si       0.05927931       2.73377153       2.70246911       0.00000000
