10
Lattice="16.290000149 0.0 0.0 0.0 16.290000149 0.0 0.0 0.0 29.1751946751" Properties=species:S:1:pos:R:3:initial_magmoms:R:1 pbc="T T T"
Si      -1.56771703       1.27839034      -1.12805890       0.00000000
Si      -1.39769830      -1.43148376       1.17864869       0.00000000
Si       1.55758465       1.12376566       1.47568135       0.00000000
Si       1.08784621      -1.10586295      -1.86213598       0.00000000
Si       2.09440532      -2.44473806      -0.23844887       0.00000000
Si       0.30297771      -3.02992374       1.19895463       0.00000000
Si       0.04530249       2.31647060      -2.51542693       0.00000000
Si       1.83487304       0.77905297      -3.14747835       0.00000000
Si      -2.53778654       2.72934065       0.39141441       0.00000000
Si      -3.46739169      -0.22301010      -1.44627275       0.00000000
