10
Lattice="16.290000149 0.0 0.0 0.0 16.290000149 0.0 0.0 0.0 29.1751946751" Properties=species:S:1:pos:R:3:initial_magmoms:R:1 pbc="T T T"
Si       2.24539733      -0.50665158       0.27894404       0.00000000
Si      -1.57421674      -1.68614859      -0.44217925       0.00000000
Si      -0.73138843       0.63342037       2.17933861       0.00000000
Si      -0.07496658       1.45860661      -1.93498644       0.00000000
H        0.26062371      -1.10909814      -2.81759443       0.00000000
Si      -2.82540279      -0.57749680      -2.04716506       0.00000000
Si      -1.29665143       3.31289733      -1.26468634       0.00000000
Si       1.30846168      -2.22104867      -2.83962170       0.00000000
Si       3.17585282      -1.32254927      -1.71605578       0.00000000
H        0.00026064       3.85994812      -0.34415060       0.00000000
