10
Lattice="16.290000149 0.0 0.0 0.0 16.290000149 0.0 0.0 0.0 29.1751946751" Properties=species:S:1:pos:R:3:initial_magmoms:R:1 pbc="T T T"
H        0.86247406       0.97958287       0.74338396       0.00000000
Si       1.41250591      -1.44889777      -1.13841610       0.00000000
Si      -1.31080744       1.27105984      -1.43603226       0.00000000
Si      -1.82697239      -0.83064340       1.18334590       0.00000000
H        1.62522073       0.21022245       2.44747791       0.00000000
H        2.26411454       1.85647358       1.35550872       0.00000000
H        0.22680567      -2.96039802       1.85691362       0.00000000
Si      -2.40034781       2.69408909       0.05572462       0.00000000
Si       2.75900475      -0.06064767      -2.48896503       0.00000000
Si       0.09700695       2.60341895      -2.67924565       0.00000000
