10
Lattice="16.290000149 0.0 0.0 0.0 16.290000149 0.0 0.0 0.0 29.1751946751" Properties=species:S:1:pos:R:3:initial_magmoms:R:1 pbc="T T T"
Si       1.32017582      -1.35708733       1.37677744       0.00000000
Si      -1.34928279      -1.35956341      -1.34955698       0.00000000
Si      -1.31918073       1.33874479       1.40125543       0.00000000
Si       1.34995394       1.36982611      -1.35731758       0.00000000
Si       2.63271000       0.07411950       2.69774273       0.00000000
Si      -2.66961989       2.70521516       0.03565209       0.00000000
Si      -2.68814162       0.01604565      -2.70028097       0.00000000
Si       2.69498667      -2.70381422       0.01665904       0.00000000
Si       0.01399148      -2.71153568      -2.69923066       0.00000000
Si      -2.70296552      -2.71000442       0.02208562       0.00000000
