10
Lattice="16.290000149 0.0 0.0 0.0 16.290000149 0.0 0.0 0.0 29.1751946751" Properties=species:S:1:pos:R:3:initial_magmoms:R:1 pbc="T T T"
Si      -1.35690814      -1.34917039      -1.35510027       0.00000000
Si      -1.34428339       1.33069753       1.38649278       0.00000000
Si       1.34034121       1.35355240      -1.38558835       0.00000000
Si       1.34646625      -1.38023542       1.35466264       0.00000000
Si       0.06773382      -2.70954830      -2.62562164       0.00000000
Si      -2.70723512       2.66828573       0.02033511       0.00000000
Si       2.70547092       2.68322366      -0.00659359       0.00000000
Si      -2.69625566      -0.06152733       2.71288465       0.00000000
Si       2.69469020      -0.03482802      -2.71600640       0.00000000
Si       2.70064256      -0.02842605       2.71600640       0.00000000
