10
Lattice="16.290000149 0.0 0.0 0.0 16.290000149 0.0 0.0 0.0 29.1751946751" Properties=species:S:1:pos:R:3:initial_magmoms:R:1 pbc="T T T"
Si       1.27904846      -1.37343272       1.38688081       0.00000000
Si      -1.34651724      -1.21378990      -1.48145512       0.00000000
Si      -1.43266971       1.30710310       1.35133958       0.00000000
Si       1.33575395       1.40678161      -1.35255473       0.00000000
Si      -1.63173022       0.61209024      -3.05154739       0.00000000
Si      -0.29746843       2.59052705      -2.56627638       0.00000000
Si       2.60917584      -2.68813347      -0.03162591       0.00000000
Si      -2.82500531      -2.52116097      -0.10936030       0.00000000
Si      -0.07008284       2.70203210       2.66950406       0.00000000
Si       2.58073350      -0.04679465       2.81214158       0.00000000
