10
Lattice="16.290000149 0.0 0.0 0.0 16.290000149 0.0 0.0 0.0 29.1751946751" Properties=species:S:1:pos:R:3:initial_magmoms:R:1 pbc="T T T"
Si      -1.28781085      -1.41261994      -1.31655983       0.00000000
Si       1.41290828      -1.22336272       1.38129959       0.00000000
Si      -1.34321314       1.30324888       1.42141548       0.00000000
Si       1.46791961       1.37687968      -1.21581789       0.00000000
Si       2.07522710       0.65432044       2.67927483       0.00000000
Si       0.42340480       2.30705498       2.58241318       0.00000000
Si      -2.61381686      -0.03785796      -2.64569418       0.00000000
Si       0.11873618       2.72914518      -2.60038510       0.00000000
Si      -2.60909276      -2.73272897       0.12717467       0.00000000
Si       0.09774815      -2.71147052       2.64951613       0.00000000
