10
Lattice="16.290000149 0.0 0.0 0.0 16.290000149 0.0 0.0 0.0 29.1751946751" Properties=species:S:1:pos:R:3:initial_magmoms:R:1 pbc="T T T"
Si       0.08379576      -0.69053311      -2.23011395       0.00000000
Si      -0.98849350      -1.78711076       1.15291909       0.00000000
Si       1.83891296       0.88143562       1.18572076       0.00000000
Si      -1.63297477       1.73525969      -0.08404207       0.00000000
H        2.53371404      -0.94470598      -0.73514780       0.00000000
Si      -2.30412278      -0.46416726       2.55320881       0.00000000
Si       0.55170973       2.33025194       2.51378729       0.00000000
Si      -2.12131640      -0.31187205      -3.03178995       0.00000000
Si      -2.07128981       1.98301430      -2.36747077       0.00000000
Si       2.02180079       0.33894603      -3.13428241       0.00000000
