10
Lattice="16.290000149 0.0 0.0 0.0 16.290000149 0.0 0.0 0.0 29.1751946751" Properties=species:S:1:pos:R:3:initial_magmoms:R:1 pbc="T T T"
Si      -1.30834765      -1.28963044       1.47074199       0.00000000
Si      -1.34905636       1.36228384      -1.37638065       0.00000000
Si       1.43133715      -1.37161801      -1.28432708       0.00000000
Si       1.37199268       1.40574556       1.31258326       0.00000000
Si      -2.62089812      -2.64932417       0.12566340       0.00000000
Si       2.64821645       0.06364503      -2.72637234       0.00000000
Si       2.74592388      -2.63482607       0.18904943       0.00000000
Si      -2.71215470       2.71003700       0.01454092       0.00000000
Si       2.71186148       0.07014474       2.73519492       0.00000000
Si      -2.73593811      -0.01705563      -2.71951617       0.00000000
