10
Lattice="16.290000149 0.0 0.0 0.0 16.290000149 0.0 0.0 0.0 29.1751946751" Properties=species:S:1:pos:R:3:initial_magmoms:R:1 pbc="T T T"
Si       1.29961621      -1.35016408       1.41876054       0.00000000
Si      -1.37749870       1.34892604       1.35043224       0.00000000
Si      -1.42877962      -1.40372560      -1.24208432       0.00000000
Si       1.42705288       1.39069360      -1.28150584       0.00000000
Si      -2.63153549      -0.00622278      -2.68313179       0.00000000
Si       2.71425611      -0.05812272      -2.60957237       0.00000000
Si       0.05313798       2.65527002      -2.69970330       0.00000000
Si      -0.11315034      -2.72666909      -2.64237404       0.00000000
Si       2.62987391      -2.76970076       0.13248456       0.00000000
Si      -0.02922426       2.70505226       2.71218445       0.00000000
