10
Lattice="16.290000149 0.0 0.0 0.0 16.290000149 0.0 0.0 0.0 29.1751946751" Properties=species:S:1:pos:R:3:initial_magmoms:R:1 pbc="T T T"
Si       1.31458672      -1.26320806       1.47337651       0.00000000
Si      -0.85869478      -1.93523573      -1.04165948       0.00000000
Si      -1.43133715       1.37161801       1.28432708       0.00000000
Si       1.21687930       1.43526304      -1.44204526       0.00000000
Si       2.57238650      -2.66408291       0.10862508       0.00000000
Si       2.61223184       2.75613771      -0.07605390       0.00000000
Si      -0.05934447       2.77736358       2.59691034       0.00000000
Si      -0.09633906      -2.66786219       2.73085365       0.00000000
Si       2.75735946       0.16505028      -2.63819907       0.00000000
Si      -1.50988753      -1.50938254      -3.17400152       0.00000000
