10
Lattice="16.290000149 0.0 0.0 0.0 16.290000149 0.0 0.0 0.0 29.1751946751" Properties=species:S:1:pos:R:3:initial_magmoms:R:1 pbc="T T T"
Si       0.64488853       0.81221941      -1.08785548       0.00000000
H       -1.40164048      -0.87689071      -0.61212476       0.00000000
H       -0.63889381      -1.64625113       1.09196919       0.00000000
Si       0.54939655      -2.17774496       1.87961192       0.00000000
Si      -2.26118234       0.91758313       1.63150606       0.00000000
Si       1.92018377       2.27615285       0.20495574       0.00000000
Si      -2.54231516       1.80794567      -0.61279579       0.00000000
Si       1.87794380      -0.56174437      -2.50536149       0.00000000
Si      -0.94110589       1.88986808      -2.40814974       0.00000000
Si      -2.26411454      -1.85647358      -1.35550872       0.00000000
