10
Lattice="16.290000149 0.0 0.0 0.0 16.290000149 0.0 0.0 0.0 29.1751946751" Properties=species:S:1:pos:R:3:initial_magmoms:R:1 pbc="T T T"
Si       1.02425005      -1.83646946       0.89340281       0.00000000
Si      -1.44645427      -1.01827162      -1.47862804       0.00000000
Si      -1.57569913       0.80570341       1.55982261       0.00000000
Si       1.66299725       1.56489886      -0.63374358       0.00000000
H        0.98709256       2.07912530       1.76892123       0.00000000
H        0.30589362       2.45807957       1.78808933       0.00000000
H       -0.83553040       0.88062112       2.87600317       0.00000000
H        1.68845852       1.61679880      -2.28357166       0.00000000
Si      -1.95098816       2.76552075       0.21219119       0.00000000
Si       0.15907185       3.36131121      -0.77460142       0.00000000
