10
Lattice="16.290000149 0.0 0.0 0.0 16.290000149 0.0 0.0 0.0 29.1751946751" Properties=species:S:1:pos:R:3:initial_magmoms:R:1 pbc="T T T"
Si      -0.08379576       0.69053311       2.23011395       0.00000000
Si       0.72860284      -2.19039577      -0.40107140       0.00000000
Si       1.93800503       1.02947914      -0.90416846       0.00000000
Si      -2.20511216       0.37866105      -0.80167600       0.00000000
H        2.44991828      -0.25417287       1.49496615       0.00000000
Si       2.62912457      -1.64184142       0.88438768       0.00000000
Si      -2.15508557       2.67354740      -0.13735682       0.00000000
Si       1.46209267      -1.84200154      -2.66229486       0.00000000
Si       1.01211400       2.07389621      -2.73946325       0.00000000
Si       0.23877882       0.02637351      -3.61471909       0.00000000
