10
Lattice="16.290000149 0.0 0.0 0.0 16.290000149 0.0 0.0 0.0 29.1751946751" Properties=species:S:1:pos:R:3:initial_magmoms:R:1 pbc="T T T"
H        1.08383887      -1.71033599      -0.78256070       0.00000000
Si      -0.24713559       0.51499206      -2.29873722       0.00000000
Si       1.94196350       0.85103848       1.06293082       0.00000000
Si      -1.74641834       1.54186480       0.45176301       0.00000000
Si      -0.83344528      -1.99840835       1.09125994       0.00000000
Si       0.71026030       2.05239341       2.65861266       0.00000000
Si      -2.17183169      -0.84479941       2.64813585       0.00000000
Si       1.98073370      -2.45436545      -1.76246797       0.00000000
Si      -2.14428530      -0.78695362      -2.92997173       0.00000000
Si      -0.70646473       3.39556257       1.40381088       0.00000000
