10
Lattice="16.290000149 0.0 0.0 0.0 16.290000149 0.0 0.0 0.0 29.1751946751" Properties=species:S:1:pos:R:3:initial_magmoms:R:1 pbc="T T T"
Si       1.32295978       1.32615262      -1.36384816       0.00000000
Si      -1.25779978       1.40087485       1.36475142       0.00000000
Si      -1.72558343      -0.93959092      -1.27600515       0.00000000
Si       1.45026284      -1.38465001       1.22648726       0.00000000
Si      -3.43108128       0.72884719      -1.15028457       0.00000000
Si      -2.57238650       2.66408291      -0.10862508       0.00000000
Si      -2.59050098      -2.66838999       0.10666743       0.00000000
Si       2.58546412      -0.10122606      -2.69112871       0.00000000
Si      -2.66872556      -0.00377928       2.62222857       0.00000000
Si       2.81284971       0.01027899       2.54465173       0.00000000
