10
Lattice="16.290000149 0.0 0.0 0.0 16.290000149 0.0 0.0 0.0 29.1751946751" Properties=species:S:1:pos:R:3:initial_magmoms:R:1 pbc="T T T"
Si       1.34996860       1.39477788      -1.31085317       0.00000000
Si      -1.32413266       1.35154873       1.38474226       0.00000000
Si      -1.33633387      -1.32502861      -1.40513281       0.00000000
Si       1.38432421      -1.35707104       1.33957906       0.00000000
Si       2.66999618      -0.09431910      -2.51987032       0.00000000
Si       0.02106297      -2.71847522       2.67008464       0.00000000
Si       2.71047683       2.67739836       0.09925401       0.00000000
Si      -0.03254742       2.72043002      -2.67560459       0.00000000
Si      -2.71112843      -0.00777033       2.68963202       0.00000000
Si      -2.69405651       2.71286821       0.07118748       0.00000000
