10
Lattice="16.290000149 0.0 0.0 0.0 16.290000149 0.0 0.0 0.0 29.1751946751" Properties=species:S:1:pos:R:3:initial_magmoms:R:1 pbc="T T T"
Si       1.81084529       1.32590176       0.60232189       0.00000000
Si      -0.73348984      -0.34839423       2.26122346       0.00000000
Si      -1.22331385       1.86837505      -0.95242423       0.00000000
Si       1.62072469      -1.53152717      -1.06982521       0.00000000
H        0.71526133      -2.52226869       0.99329868       0.00000000
H       -1.20241378      -2.92301898      -0.23932412       0.00000000
Si      -0.28167039      -2.85479646      -1.44519327       0.00000000
Si       0.47591235       2.87148068       1.75812641       0.00000000
Si      -1.46209267       1.84200154       2.66229486       0.00000000
Si      -1.16629885      -1.45330259      -3.05677267       0.00000000
