10
Lattice="16.290000149 0.0 0.0 0.0 16.290000149 0.0 0.0 0.0 29.1751946751" Properties=species:S:1:pos:R:3:initial_magmoms:R:1 pbc="T T T"
Si      -1.31722798       1.43555138      -1.27510188       0.00000000
Si       1.31525722       1.38283368       1.36341520       0.00000000
Si      -1.39818928      -1.33520986       1.33406495       0.00000000
Si       1.28142289      -1.34509789      -1.45560881       0.00000000
Si      -2.64254981       0.09946674      -2.61206685       0.00000000
Si       2.64723677      -2.69276960      -0.08338271       0.00000000
Si      -0.02944113      -2.69089625       2.67574463       0.00000000
Si       2.65991039       0.02243133       2.72087866       0.00000000
Si       2.69320715       0.04584006      -2.71150758       0.00000000
Si       2.63858678       2.76783393       0.00207144       0.00000000
