10
Lattice="16.290000149 0.0 0.0 0.0 16.290000149 0.0 0.0 0.0 29.1751946751" Properties=species:S:1:pos:R:3:initial_magmoms:R:1 pbc="T T T"
Si       1.35630541      -1.39535580      -1.28831825       0.00000000
Si       1.39320226       1.34273584       1.32910517       0.00000000
Si      -1.32332957      -1.38500025       1.36134376       0.00000000
Si      -1.29451093       1.35347095      -1.43095577       0.00000000
Si      -2.64462614       2.67993308      -0.02406954       0.00000000
Si       2.70218522      -0.06485049      -2.63482058       0.00000000
Si       0.03528414       2.69882948       2.68303843       0.00000000
Si      -2.70353729      -0.03717378       2.70118540       0.00000000
Si      -2.65709779      -0.04145805      -2.74912024       0.00000000
Si      -2.63858678      -2.76783393      -0.00207144       0.00000000
