10
Lattice="16.290000149 0.0 0.0 0.0 16.290000149 0.0 0.0 0.0 29.1751946751" Properties=species:S:1:pos:R:3:initial_magmoms:R:1 pbc="T T T"
Si      -1.35239581      -0.58911157      -0.27634744       0.00000000
H        0.89573824      -1.74664640      -0.43859070       0.00000000
H        1.61184664      -0.85113622       1.17514767       0.00000000
Si       1.07709481      -1.12220182       2.55723499       0.00000000
Si      -2.71037909       0.75957013       1.05135732       0.00000000
Si       2.02937564      -1.82368181      -1.43524453       0.00000000
Si      -1.81218107      -0.17304867      -2.49129905       0.00000000
Si      -1.16361100       2.06650055       2.24039237       0.00000000
Si       0.01110978       1.12700737      -3.13017746       0.00000000
Si       0.66684745       2.89268049      -1.54141306       0.00000000
