10
Lattice="16.290000149 0.0 0.0 0.0 16.290000149 0.0 0.0 0.0 29.1751946751" Properties=species:S:1:pos:R:3:initial_magmoms:R:1 pbc="T T T"
Si      -1.39320226      -1.34273584      -1.32910517       0.00000000
Si      -1.35791812       1.35609364       1.35393326       0.00000000
Si       1.32885676      -1.37044513       1.37327641       0.00000000
Si       1.36026388       1.34506531      -1.37140920       0.00000000
Si      -0.03689685      -2.73809164      -2.61742342       0.00000000
Si       2.70853832       2.70119153      -0.00965699       0.00000000
Si      -2.70221292       2.71409321      -0.00843163       0.00000000
Si       2.68899032      -2.72814823       0.03425168       0.00000000
Si       2.70233183      -0.02388114       2.71699835       0.00000000
Si      -0.00674406       2.71648784       2.70325684       0.00000000
