10
Lattice="16.290000149 0.0 0.0 0.0 16.290000149 0.0 0.0 0.0 29.1751946751" Properties=species:S:1:pos:R:3:initial_magmoms:R:1 pbc="T T T"
Si      -0.46983618      -1.28728468       0.64529696       0.00000000
H        0.49721967      -1.54070821      -1.83625758       0.00000000
Si       1.53026632      -0.43634394      -2.05539246       0.00000000
Si       2.69325342      -0.60106843      -0.03571044       0.00000000
Si      -1.29217168      -0.30749004       2.58673111       0.00000000
Si       1.53627733      -2.65712708       0.56421909       0.00000000
Si      -2.34461972      -1.98930224      -0.64226274       0.00000000
Si      -2.79318117       1.00056439       1.28525485       0.00000000
Si      -1.87163957       2.83419939       0.12046438       0.00000000
Si       0.26943660       1.19970964      -3.21393945       0.00000000
