10
Lattice="10.86 0.0 0.0 0.0 10.86 0.0 0.0 0.0 10.86" Properties=species:S:1:pos:R:3:initial_magmoms:R:1 pbc="T T T"
Si       1.28391264      -1.26396282      -1.38666996       0.00000000
Si       1.28391264       1.45103718       1.32833004       0.00000000
Si      -1.43108736       1.45103718      -1.38666996       0.00000000
Si      -2.59424766      -2.47175772       0.17987418       0.00000000
Si       2.64141264      -2.62146282      -0.02916996       0.00000000
Si       2.64141264       0.09353718       2.68583004       0.00000000
Si       2.64141264       0.09353718      -2.74416996       0.00000000
Si      -0.28365234      -2.71337100      -2.67608862       0.00000000
Si      -2.85899274       0.03149400       2.57025792       0.00000000
Si       2.64141264       2.80853718      -0.02916996       0.00000000
