10
Lattice="16.28999089631971 0.0 0.0 0.0 16.28999089631971 0.0 0.0 0.0 34.63643526849801" Properties=species:S:1:pos:R:3:initial_magmoms:R:1 pbc="T T T"
Si       1.32453990      -1.25334690      -1.46346987       0.00000000
Si      -1.34794863      -1.35781467       1.35995883       0.00000000
Si       1.36093176       1.35584588       1.35729182       0.00000000
Si      -1.28699797       1.40191074      -1.41405404       0.00000000
Si       0.51577398       2.01098081      -3.08031139       0.00000000
Si       2.36954340       0.31112745      -2.91558041       0.00000000
Si      -0.06157620      -2.54551857      -2.81998380       0.00000000
Si       2.71510317      -2.69652687      -0.02565869       0.00000000
Si      -2.70631909      -0.00392984       2.71801958       0.00000000
Si       0.00935046       2.71260740       2.71843521       0.00000000
