10
Lattice="16.28999089631971 0.0 0.0 0.0 16.28999089631971 0.0 0.0 0.0 34.63643526849801" Properties=species:S:1:pos:R:3:initial_magmoms:R:1 pbc="T T T"
Si      -0.48511620       1.62587232      -1.61000632       0.00000000
Si      -0.24418710      -1.97504847      -1.33142532       0.00000000
Si      -1.76786573      -0.08097759       1.62361845       0.00000000
Si       2.35739106       0.20927763       0.58733036       0.00000000
Si      -0.37276407      -0.94293036       3.24446598       0.00000000
Si       0.91328256      -3.52585647      -0.02369133       0.00000000
Si       3.31628562      -0.83375478      -1.30918871       0.00000000
Si      -2.47309730      -2.62922229      -1.18380475       0.00000000
Si      -2.42708131       0.97336008      -2.77060464       0.00000000
Si      -3.14276063      -1.95825348       0.94796513       0.00000000
