10
Lattice="16.28999089631971 0.0 0.0 0.0 16.28999089631971 0.0 0.0 0.0 34.63643526849801" Properties=species:S:1:pos:R:3:initial_magmoms:R:1 pbc="T T T"
Si       1.85450247      -0.43658829       1.54284623       0.00000000
Si       1.67814693      -1.50487020      -0.97352683       0.00000000
Si      -1.88235837      -1.82094344       0.16241034       0.00000000
Si       0.77511078       2.61917136      -0.77190803       0.00000000
Si       0.13681971      -3.08800245      -0.31636938       0.00000000
Si       1.25626851      -2.76626680       1.79205553       0.00000000
Si      -2.73365748       2.46145158      -0.46461340       0.00000000
Si      -0.89686224       3.65251122       0.50167441       0.00000000
Si      -2.71000440      -1.36378251       2.30838115       0.00000000
Si      -3.34132335       0.64198890      -2.06855834       0.00000000
