10
Lattice="16.28999089631971 0.0 0.0 0.0 16.28999089631971 0.0 0.0 0.0 34.63643526849801" Properties=species:S:1:pos:R:3:initial_magmoms:R:1 pbc="T T T"
Si       1.36622601       1.33582887      -1.38396882       0.00000000
Si      -1.35102744      -1.37867157      -1.38002026       0.00000000
Si       1.28163204      -1.36417347       1.46765049       0.00000000
Si      -1.31603652       1.46992815       1.49927357       0.00000000
Si      -2.64341251      -0.08804745       2.73984747       0.00000000
Si      -2.71455583       2.69482212      -0.00242455       0.00000000
Si       2.72165175       2.68931610      -0.00249382       0.00000000
Si       2.71583622      -2.71633306       0.00162791       0.00000000
Si       0.00812871       2.69219943      -2.74230666       0.00000000
Si      -2.70791439      -0.02088378      -2.74279157       0.00000000
