10
Lattice="16.28999089631971 0.0 0.0 0.0 16.28999089631971 0.0 0.0 0.0 34.63643526849801" Properties=species:S:1:pos:R:3:initial_magmoms:R:1 pbc="T T T"
Si      -1.14691537       1.14298785      -1.78554387       0.00000000
Si       1.87369209       1.20953250       1.00982583       0.00000000
Si       1.27223271      -1.40463946      -1.67695859       0.00000000
Si      -0.53758629      -1.52173361       1.96631153       0.00000000
Si      -2.23490166       1.34770428       0.36804697       0.00000000
Si       0.34774263       3.18422259       0.65566809       0.00000000
Si       3.33347157       0.01244556      -0.66450038       0.00000000
Si       2.66405031      -2.23872655       0.08766487       0.00000000
Si       1.58309478      -2.51021407       2.20253215       0.00000000
Si      -1.95590772      -3.07195910       0.73245711       0.00000000
