10
Lattice="16.28999089631971 0.0 0.0 0.0 16.28999089631971 0.0 0.0 0.0 34.63643526849801" Properties=species:S:1:pos:R:3:initial_magmoms:R:1 pbc="T T T"
Si       2.07876690       0.90702720       0.70391667       0.00000000
Si      -1.66573395       1.49219658      -1.01644140       0.00000000
Si      -1.23170319      -1.55864349       1.50983769       0.00000000
Si       0.22807629      -2.75573043      -0.16448852       0.00000000
Si      -2.75765265       0.41604660       1.15567995       0.00000000
Si      -0.62403732       0.26081919       3.11378263       0.00000000
Si       2.36172420      -0.28445598      -2.56011891       0.00000000
Si      -0.25588332       2.56280796      -2.64643295       0.00000000
Si      -2.92493466      -0.06721254      -2.52610591       0.00000000
Si      -0.32726610      -2.90131416      -2.55772899       0.00000000
