10
Lattice="16.28999089631971 0.0 0.0 0.0 16.28999089631971 0.0 0.0 0.0 34.63643526849801" Properties=species:S:1:pos:R:3:initial_magmoms:R:1 pbc="T T T"
Si      -0.43549686       2.24279091       0.62899802       0.00000000
Si      -0.13926321      -0.44134497      -2.34263661       0.00000000
Si       2.20957560      -0.84672162       0.34698800       0.00000000
Si      -1.72550196      -1.42058574       0.88073577       0.00000000
Si       0.02998989      -2.78441712      -2.15674276       0.00000000
Si       2.15816436      -2.65577499      -1.25435920       0.00000000
Si      -1.71778050      -3.18596562      -0.69373355       0.00000000
Si       1.43417160       3.62268423       0.09407261       0.00000000
Si       2.60226234      -1.29753108       2.61276632       0.00000000
Si       3.82355622       0.87628797      -0.02258297       0.00000000
