10
Lattice="16.28999089631971 0.0 0.0 0.0 16.28999089631971 0.0 0.0 0.0 34.63643526849801" Properties=species:S:1:pos:R:3:initial_magmoms:R:1 pbc="T T T"
Si      -1.23079095      -1.49148538      -1.38809056       0.00000000
Si       1.39181760      -0.83408710       1.76462345       0.00000000
Si       1.50589647       1.27150129      -1.38078226       0.00000000
Si      -1.27223271       1.40463946       1.67695859       0.00000000
Si       2.06123886       1.41708502       1.01245821       0.00000000
Si      -2.41914808       2.54762731      -0.10858529       0.00000000
Si      -2.63247540      -2.62577437       0.20006016       0.00000000
Si      -2.49656305      -0.10540607      -2.85120367       0.00000000
Si       0.60145938       2.61417196       2.68678442       0.00000000
Si       0.22426443       2.63567476      -2.84843276       0.00000000
