10
Lattice="16.28999089631971 0.0 0.0 0.0 16.28999089631971 0.0 0.0 0.0 34.63643526849801" Properties=species:S:1:pos:R:3:initial_magmoms:R:1 pbc="T T T"
Si       1.35242838      -1.35710361       1.35823393       0.00000000
Si      -1.36190916       1.35821133       1.35899593       0.00000000
Si       1.33227765       1.36345671      -1.38460959       0.00000000
Si      -1.36634004      -1.37619549      -1.37928597       0.00000000
Si       2.70816363      -2.70971118      -0.00200891       0.00000000
Si       2.71197549       2.71479366      -0.00450274       0.00000000
Si       2.71125873       0.00115659       2.71636395       0.00000000
Si      -0.00369783      -2.71432125       2.71646786       0.00000000
Si      -0.00319284       2.71559187       2.71619077       0.00000000
Si      -2.72572425      -2.70671382       0.00460665       0.00000000
