10
Lattice="16.28999089631971 0.0 0.0 0.0 16.28999089631971 0.0 0.0 0.0 34.63643526849801" Properties=species:S:1:pos:R:3:initial_magmoms:R:1 pbc="T T T"
Si       1.88564895      -1.20081735       0.74773178       0.00000000
Si       0.33179472       2.33735436      -0.08711068       0.00000000
Si       0.13175352      -0.60064488      -2.33747578       0.00000000
Si      -2.07120834      -0.35474733       1.19838669       0.00000000
Si      -3.22867800       1.19606067      -0.10934729       0.00000000
Si       0.96200595      -3.36781089       0.53506395       0.00000000
Si       2.59875999       2.63726955      -0.59626657       0.00000000
Si      -2.45332287       1.69723881      -2.30741133       0.00000000
Si      -2.60960913      -2.61376308       0.79909764       0.00000000
Si       2.39350599      -0.48918870       2.98351493       0.00000000
