10
Lattice="16.28999089631971 0.0 0.0 0.0 16.28999089631971 0.0 0.0 0.0 34.63643526849801" Properties=species:S:1:pos:R:3:initial_magmoms:R:1 pbc="T T T"
Si      -1.76378346       1.04690943       1.16624406       0.00000000
Si       0.59039847      -2.24055918       0.47046696       0.00000000
Si       1.77655482       1.34703639       0.82005270       0.00000000
Si      -0.74114613       0.69727716      -2.15632712       0.00000000
Si      -3.47130126      -0.45493083       0.50080850       0.00000000
Si      -0.37962216       3.02549283      -1.79305998       0.00000000
Si      -1.20370068       3.31908750       0.43066968       0.00000000
Si       2.88433998      -0.07902279       2.42240436       0.00000000
Si       0.66813435       3.18443436       1.97639074       0.00000000
Si       1.87072731      -2.25789174       2.45572463       0.00000000
