10
Lattice="16.28999089631971 0.0 0.0 0.0 16.28999089631971 0.0 0.0 0.0 34.63643526849801" Properties=species:S:1:pos:R:3:initial_magmoms:R:1 pbc="T T T"
Si      -1.35695700      -1.34104167      -1.36826811       0.00000000
Si       1.35786924      -1.35459495       1.35864957       0.00000000
Si      -1.35571896       1.35985662       1.35968866       0.00000000
Si       1.34969166       1.38245085      -1.38516724       0.00000000
Si      -2.71296429      -2.71389771      -0.00034636       0.00000000
Si      -0.00011403      -2.71217097       2.71664105       0.00000000
Si      -2.71399382       0.00255753       2.71605223       0.00000000
Si       2.71658556       0.00278559       2.71584441       0.00000000
Si       2.71977840      -2.71280628      -0.00034636       0.00000000
Si       0.00058644       2.71813311       2.71574050       0.00000000
