10
Lattice="16.28999089631971 0.0 0.0 0.0 16.28999089631971 0.0 0.0 0.0 34.63643526849801" Properties=species:S:1:pos:R:3:initial_magmoms:R:1 pbc="T T T"
Si       1.35065277       1.33457454      -1.37528199       0.00000000
Si       1.35360126      -1.35615879       1.35861493       0.00000000
Si      -1.35852084       1.35872375       1.35754120       0.00000000
Si      -1.36925595      -1.33380891      -1.38572142       0.00000000
Si      -0.07141536       2.65331750      -2.70152570       0.00000000
Si       2.71280628      -2.71427238      -0.00540329       0.00000000
Si       2.71143792       2.71564304      -0.00460665       0.00000000
Si       2.71179630       0.00179190       2.71553268       0.00000000
Si      -0.00236205      -2.71347417       2.71529022       0.00000000
Si      -0.00215028       2.71678823       2.71594832       0.00000000
