10
Lattice="16.28999089631971 0.0 0.0 0.0 16.28999089631971 0.0 0.0 0.0 34.63643526849801" Properties=species:S:1:pos:R:3:initial_magmoms:R:1 pbc="T T T"
Si       1.35596331       1.35731538      -1.35667529       0.00000000
Si       1.35679410      -1.35741312       1.35785293       0.00000000
Si      -1.35812988       1.35728280       1.35771438       0.00000000
Si      -1.35871632      -1.35738054      -1.35719484       0.00000000
Si      -0.00016290       2.71345788       2.71438968       0.00000000
Si       0.00236205       2.71347417      -2.71529022       0.00000000
Si       2.71445157      -2.71443528       0.00017318       0.00000000
Si       2.71415835       2.71526607       0.00024246       0.00000000
Si      -2.71531494      -0.00014661       2.71483995       0.00000000
Si      -0.00223173      -2.71528236       2.71497850       0.00000000
