10
Lattice="16.28999089631971 0.0 0.0 0.0 16.28999089631971 0.0 0.0 0.0 34.63643526849801" Properties=species:S:1:pos:R:3:initial_magmoms:R:1 pbc="T T T"
Si       1.35382932      -1.35298224       1.35989648       0.00000000
Si      -1.35796698      -1.35617508      -1.35667529       0.00000000
Si       1.35752715       1.35875113      -1.35712557       0.00000000
Si      -1.35922131       1.35594261       1.36194003       0.00000000
Si       2.71340901       0.01161477       2.69994627       0.00000000
Si       2.71505430      -2.71186146       0.00145473       0.00000000
Si       0.00016290      -2.71345788      -2.71438968       0.00000000
Si       2.71432125       0.00180819      -2.71414722       0.00000000
Si      -2.71515204      -2.71360449       0.00045027       0.00000000
Si       2.71454931       2.71440337       0.00031173       0.00000000
