10
Lattice="16.28999089631971 0.0 0.0 0.0 16.28999089631971 0.0 0.0 0.0 34.63643526849801" Properties=species:S:1:pos:R:3:initial_magmoms:R:1 pbc="T T T"
Si      -1.08484884       1.14847385      -1.72340607       0.00000000
Si       2.21610789       0.84587454      -0.16774435       0.00000000
Si      -0.36152397      -2.32821567      -0.36326714       0.00000000
Si      -0.82407852       0.29359467       2.22372966       0.00000000
Si       0.37962216      -3.02549283       1.79305998       0.00000000
Si       3.48478938      -0.97427232       0.80879585       0.00000000
Si       2.15617698      -1.67845644       2.61311268       0.00000000
Si      -1.38416130      -1.97858340       2.95930405       0.00000000
Si      -1.17260307      -0.26515233      -3.64462094       0.00000000
Si      -2.71891503      -2.53749330      -0.95059750       0.00000000
