10
Lattice="16.28999089631971 0.0 0.0 0.0 16.28999089631971 0.0 0.0 0.0 34.63643526849801" Properties=species:S:1:pos:R:3:initial_magmoms:R:1 pbc="T T T"
Si      -2.21610789      -0.84587454       0.16774435       0.00000000
Si       1.26868149      -1.82014686       0.97654020       0.00000000
Si       0.68815476       0.63355787      -2.23637197       0.00000000
Si       0.50446872       1.85658337       1.47939225       0.00000000
Si       2.87489178      -0.23718240      -1.84366384       0.00000000
Si      -3.30095673       0.30259931      -1.55566172       0.00000000
Si       3.63923487       0.54763463       0.23753681       0.00000000
Si      -0.05993091      -2.52433098       2.78085703       0.00000000
Si       2.69695611       2.59008461       0.91603032       0.00000000
Si      -3.04018641      -0.55227987       2.39147401       0.00000000
