10
Lattice="16.28999089631971 0.0 0.0 0.0 16.28999089631971 0.0 0.0 0.0 34.63643526849801" Properties=species:S:1:pos:R:3:initial_magmoms:R:1 pbc="T T T"
Si       0.79500087       1.79526063      -1.32006456       0.00000000
Si       1.47390291      -1.88258873      -0.16220252       0.00000000
Si      -1.85303637      -0.81255986      -1.40880316       0.00000000
Si       0.93429666       0.73445583       2.24226016       0.00000000
Si       2.02836564       0.38064680      -2.77133201       0.00000000
Si       2.57768073       2.64170532       0.02348352       0.00000000
Si      -0.68647689      -2.32906505      -2.78702232       0.00000000
Si       3.32873118      -0.99079268      -1.36734332       0.00000000
Si      -2.86958124      -2.67363113      -0.28561220       0.00000000
Si       1.75347189      -2.92527905       1.96444116       0.00000000
