10
Lattice="16.28999089631971 0.0 0.0 0.0 16.28999089631971 0.0 0.0 0.0 34.63643526849801" Properties=species:S:1:pos:R:3:initial_magmoms:R:1 pbc="T T T"
Si       2.13136731      -0.97610724       0.26057005       0.00000000
Si      -1.11944880      -0.32173564      -2.10842490       0.00000000
Si       0.59823396       2.32967851      -0.24920929       0.00000000
Si      -1.30482900      -1.02681801       1.82243170       0.00000000
Si       0.42187842       1.26139660      -2.76558236       0.00000000
Si      -1.25626851       2.76626680      -1.79205553       0.00000000
Si      -0.29126520      -3.20599647       1.66081800       0.00000000
Si      -3.13862688       0.94532336      -1.62964519       0.00000000
Si       1.81657935      -3.24289332       0.59450011       0.00000000
Si      -0.21276369      -0.27984917       3.82182104       0.00000000
