10
Lattice="16.28999089631971 0.0 0.0 0.0 16.28999089631971 0.0 0.0 0.0 34.63643526849801" Properties=species:S:1:pos:R:3:initial_magmoms:R:1 pbc="T T T"
Si       0.33759396       2.22668173      -0.79885519       0.00000000
Si       1.69544691      -1.69501264      -0.05084632       0.00000000
Si      -1.80707414      -0.50449804      -1.51496389       0.00000000
Si      -0.27008820      -0.48009888       2.43005902       0.00000000
Si      -3.00616149       1.57237759      -1.76992283       0.00000000
Si      -1.20713787       2.74996540      -2.53386447       0.00000000
Si       2.51952543      -1.98860731      -2.27457598       0.00000000
Si      -1.00711296      -0.72129839      -3.78728849       0.00000000
Si      -2.98451696      -2.50965925      -1.04494720       0.00000000
Si       2.08536435       2.62823023      -2.26186440       0.00000000
