10
Lattice="16.28999089631971 0.0 0.0 0.0 16.28999089631971 0.0 0.0 0.0 34.63643526849801" Properties=species:S:1:pos:R:3:initial_magmoms:R:1 pbc="T T T"
Si       2.29594518       0.01504707       0.63163039       0.00000000
Si      -1.25550288      -2.08769775       0.09092069       0.00000000
Si       0.41731722       0.45581863      -2.36688213       0.00000000
Si      -1.03148280       1.71480269       1.45573555       0.00000000
Si       0.23183928       1.16439617       3.34005951       0.00000000
Si       2.14395948      -0.51795195       2.98756739       0.00000000
Si      -0.60924600       2.49884039      -2.76343490       0.00000000
Si      -3.12733791      -1.95304461      -1.45480037       0.00000000
Si      -0.16514802       3.85708430       1.10369063       0.00000000
Si       3.64972563       1.46717840      -0.84689595       0.00000000
