10
Lattice="16.28999089631971 0.0 0.0 0.0 16.28999089631971 0.0 0.0 0.0 34.63643526849801" Properties=species:S:1:pos:R:3:initial_magmoms:R:1 pbc="T T T"
Si       1.35092970      -1.35215145       1.33071180       0.00000000
Si       0.99852813       1.75666473      -1.16581284       0.00000000
Si      -1.38489435       1.33633386       1.32442875       0.00000000
Si      -1.06210800      -1.76619438      -1.14708768       0.00000000
Si       2.63979450      -2.67080740      -0.11594553       0.00000000
Si      -1.45909530       0.92649375      -3.38345657       0.00000000
Si       2.69972541      -0.01192428       2.68271810       0.00000000
Si      -0.02031363       2.70964602       2.67329699       0.00000000
Si      -0.01787013      -2.72592462       2.67159980       0.00000000
Si      -2.72650617      -0.01751175       2.68309910       0.00000000
