10
Lattice="16.28999089631971 0.0 0.0 0.0 16.28999089631971 0.0 0.0 0.0 34.63643526849801" Properties=species:S:1:pos:R:3:initial_magmoms:R:1 pbc="T T T"
Si       1.74878037       1.07826768       1.20732290       0.00000000
Si       1.37805255      -1.32553359      -1.45854110       0.00000000
Si      -1.32410007       1.40817276      -1.43225204       0.00000000
Si      -1.45432233      -1.34087877       1.39356312       0.00000000
Si      -2.37785130       0.56376432       2.73731901       0.00000000
Si       3.44315214      -0.74560959       1.15128112       0.00000000
Si       2.74805784      -2.68185528      -0.10498309       0.00000000
Si      -2.67240708       0.03709233      -2.82332133       0.00000000
Si       0.04469976      -2.67748956      -2.82924416       0.00000000
Si      -2.78229942      -2.76161112       0.02334497       0.00000000
