10
Lattice="16.28999089631971 0.0 0.0 0.0 16.28999089631971 0.0 0.0 0.0 34.63643526849801" Properties=species:S:1:pos:R:3:initial_magmoms:R:1 pbc="T T T"
Si       1.67897772       0.86185503      -1.44957026       0.00000000
Si      -2.18616687       0.33697494      -0.88617369       0.00000000
Si       0.37315503       1.38684915       1.92256569       0.00000000
Si       0.28559628      -2.43201555       0.20560199       0.00000000
Si       0.97337637      -0.39902355       3.35270490       0.00000000
Si       0.59619771       0.82912842      -3.54888578       0.00000000
Si       1.94248476       3.15626895      -0.95257178       0.00000000
Si      -2.55419055      -1.45920933      -2.45950001       0.00000000
Si       2.05726410       3.04455213       1.41122771       0.00000000
Si       2.36793069      -2.96820090       1.07282955       0.00000000
