10
Lattice="16.28999089631971 0.0 0.0 0.0 16.28999089631971 0.0 0.0 0.0 34.63643526849801" Properties=species:S:1:pos:R:3:initial_magmoms:R:1 pbc="T T T"
Si      -2.09205954      -0.85667481      -0.59553920       0.00000000
Si       0.42803604       1.76059062       1.48330067       0.00000000
Si       1.38831525      -1.94992929       0.37602344       0.00000000
Si       0.77946021       0.43508961      -2.28001390       0.00000000
Si       1.21992552      -2.08262763      -1.89755817       0.00000000
Si      -0.95707008       2.12278248      -2.37505633       0.00000000
Si       1.75096323       0.36784449       2.85982957       0.00000000
Si      -1.06930818      -2.78010027      -1.84162029       0.00000000
Si      -2.77312815      -1.52044344       1.56880768       0.00000000
Si       3.14186859      -1.00611927       1.50833936       0.00000000
