10
Lattice="16.28999089631971 0.0 0.0 0.0 16.28999089631971 0.0 0.0 0.0 34.63643526849801" Properties=species:S:1:pos:R:3:initial_magmoms:R:1 pbc="T T T"
Si       1.35452979      -1.35684297      -1.35390437       0.00000000
Si      -1.35793440      -1.35677781       1.35681384       0.00000000
Si       1.35702216       1.35755973       1.35719484       0.00000000
Si      -1.35721764       1.35685926      -1.36405286       0.00000000
Si       0.02046024      -2.70285309      -2.71686272       0.00000000
Si       2.71484253      -0.00004887       2.71393940       0.00000000
Si      -0.00034209      -2.71502172       2.71404331       0.00000000
Si       2.71283886       2.71625976      -0.00031173       0.00000000
Si       2.71451673      -2.71498914       0.00010391       0.00000000
Si      -0.00068418       2.71573848       2.71407795       0.00000000
