10
Lattice="16.28999089631971 0.0 0.0 0.0 16.28999089631971 0.0 0.0 0.0 34.63643526849801" Properties=species:S:1:pos:R:3:initial_magmoms:R:1 pbc="T T T"
Si      -0.79996117       0.21680035       2.27232461       0.00000000
Si       0.32260716      -2.17892989      -1.04789130       0.00000000
Si       2.44178955      -0.11883506      -0.21069355       0.00000000
Si      -1.67114549       0.46458754      -1.75308951       0.00000000
Si       0.42792201       2.41707273      -0.74984461       0.00000000
Si       2.35403532      -1.53246124      -2.13190842       0.00000000
Si       2.75659380       2.19013674      -0.48969020       0.00000000
Si      -3.10128110      -1.38172987      -1.16091005       0.00000000
Si      -1.99904853       2.29367598       2.01736566       0.00000000
Si      -0.20002491       3.47126379       1.25342402       0.00000000
