10
Lattice="16.28999089631971 0.0 0.0 0.0 16.28999089631971 0.0 0.0 0.0 34.63643526849801" Properties=species:S:1:pos:R:3:initial_magmoms:R:1 pbc="T T T"
Si      -0.68740542      -2.13389226       0.55006154       0.00000000
Si      -1.77214023       0.96585039      -1.33817942       0.00000000
Si       0.92352897      -1.90464309      -1.34375589       0.00000000
Si       0.98450244       0.59926023       2.23550605       0.00000000
Si      -0.36385344       2.31984261      -2.68158895       0.00000000
Si       2.37785130      -0.56376432      -2.73731901       0.00000000
Si       0.11855862      -2.62238049       2.65263288       0.00000000
Si      -0.97555923       0.74086920       3.58705515       0.00000000
Si       2.15037774      -1.44096453       2.93651326       0.00000000
Si      -3.41120745       1.98824337       0.15558695       0.00000000
