10
Lattice="16.28999089631971 0.0 0.0 0.0 16.28999089631971 0.0 0.0 0.0 34.63643526849801" Properties=species:S:1:pos:R:3:initial_magmoms:R:1 pbc="T T T"
Si      -1.35409143      -1.33265232      -1.37471396       0.00000000
Si       1.35779105      -1.35086454       1.35930766       0.00000000
Si      -1.35715629       1.36361961       1.35913448       0.00000000
Si       1.37199593       1.36401057      -1.38483127       0.00000000
Si       2.70937235      -2.70762606      -0.00183573       0.00000000
Si      -2.71416228      -2.70932348      -0.00193964       0.00000000
Si       0.00029974      -2.70985779       2.71629468       0.00000000
Si       2.71487837       0.00474039       2.71632932       0.00000000
Si      -2.71505823       0.00472410       2.71660641       0.00000000
Si      -2.71176765       2.72191239       0.00221673       0.00000000
