10
Lattice="16.28999089631971 0.0 0.0 0.0 16.28999089631971 0.0 0.0 0.0 34.63643526849801" Properties=species:S:1:pos:R:3:initial_magmoms:R:1 pbc="T T T"
Si      -0.31478796      -2.26678608       0.33393006       0.00000000
Si      -2.13136731       0.97610724      -0.26057005       0.00000000
Si       1.91373291       0.16241130      -1.37735325       0.00000000
Si       1.06525197       0.44854240       2.06717288       0.00000000
Si       2.46167964       2.26112435      -0.54857217       0.00000000
Si       2.60190396      -1.30199454       1.84262475       0.00000000
Si      -2.42263251      -2.22988923       1.40024795       0.00000000
Si      -1.53313335       3.30578576      -0.50977934       0.00000000
Si       3.40770510      -1.38579030      -0.36576096       0.00000000
Si       2.23054083       2.44655342       1.78433160       0.00000000
