10
Lattice="16.28999089631971 0.0 0.0 0.0 16.28999089631971 0.0 0.0 0.0 34.63643526849801" Properties=species:S:1:pos:R:3:initial_magmoms:R:1 pbc="T T T"
Si      -1.74900843      -1.08452304       1.07203291       0.00000000
Si       0.75491118      -0.77900409      -2.12816768       0.00000000
Si       1.77839559      -0.36681822       1.57433077       0.00000000
Si      -0.64361790       2.31544431      -0.25288076       0.00000000
Si      -2.87028171      -1.36458072      -1.01041465       0.00000000
Si       2.11568004       1.18793196      -2.36421512       0.00000000
Si      -2.24982819       0.73247985       2.56732329       0.00000000
Si       0.12072519       3.10026134       1.82831989       0.00000000
Si       2.32254675      -2.43923202      -1.35338483       0.00000000
Si       2.43732609      -2.55094884       1.01041465       0.00000000
