10
Lattice="16.28999089631971 0.0 0.0 0.0 16.28999089631971 0.0 0.0 0.0 34.63643526849801" Properties=species:S:1:pos:R:3:initial_magmoms:R:1 pbc="T T T"
Si      -2.01961791      -0.59168212       1.13506814       0.00000000
Si       0.66642390       2.05268661       1.14559069       0.00000000
Si       1.78810443      -1.77027014      -0.03648431       0.00000000
Si       0.19978056      -1.74101493      -2.66255384       0.00000000
Si      -0.62165898      -2.01133349       2.54993614       0.00000000
Si       2.11437930       0.73109520       2.55157098       0.00000000
Si       0.67197879      -3.48893423       1.17422811       0.00000000
Si       3.52991335      -0.59781368       1.15310334       0.00000000
Si       0.75430845      -0.64557596       3.92434529       0.00000000
Si      -3.80940021      -1.36941722      -0.24856613       0.00000000
