10
Lattice="16.28999089631971 0.0 0.0 0.0 16.28999089631971 0.0 0.0 0.0 34.63643526849801" Properties=species:S:1:pos:R:3:initial_magmoms:R:1 pbc="T T T"
Si      -1.35793440      -1.35113170       1.35567083       0.00000000
Si       1.35713619      -1.35606757      -1.35961939       0.00000000
Si      -1.35695700       1.35808101      -1.35982721       0.00000000
Si       1.37940462       1.35580041       1.37409743       0.00000000
Si      -2.59129917       0.06348213       2.80693828       0.00000000
Si      -2.71344159      -2.71410038      -0.00387928       0.00000000
Si       2.71705539      -2.71107618       0.00221673       0.00000000
Si       2.71557558       2.71339272      -0.00086591       0.00000000
Si      -2.71169856       2.71774215      -0.00419101       0.00000000
Si       0.00096111      -2.71318987      -2.71722987       0.00000000
