10
Lattice="16.28999089631971 0.0 0.0 0.0 16.28999089631971 0.0 0.0 0.0 34.63643526849801" Properties=species:S:1:pos:R:3:initial_magmoms:R:1 pbc="T T T"
Si       0.02450016       2.15063838       0.97505083       0.00000000
Si      -2.03059737      -0.89928035       0.91890514       0.00000000
Si      -0.38833731       0.89378343      -2.20014223       0.00000000
Si       2.15194877      -1.09252862       0.31543419       0.00000000
Si      -3.62832057       0.83220723       0.04371121       0.00000000
Si      -2.31482529       2.75198373       1.12319095       0.00000000
Si       1.87295482       3.32713476      -0.04897595       0.00000000
Si      -1.66575024      -1.03298867       3.33663358       0.00000000
Si      -1.23388605      -0.89304128      -3.56589228       0.00000000
Si       2.74761379      -2.05098335      -1.89392134       0.00000000
