10
Lattice="16.28999089631971 0.0 0.0 0.0 16.28999089631971 0.0 0.0 0.0 34.63643526849801" Properties=species:S:1:pos:R:3:initial_magmoms:R:1 pbc="T T T"
Si      -1.78267986      -0.84644469      -1.34354807       0.00000000
Si       0.80027883       1.80344961      -1.43041630       0.00000000
Si       1.59659919      -1.84567329      -0.02507679       0.00000000
Si      -0.32988879       0.01252701       3.29825639       0.00000000
Si      -1.64338407      -1.90724949       2.21877665       0.00000000
Si       2.18802393       0.44587359      -2.77638893       0.00000000
Si      -0.54931509      -2.26105852      -2.79481552       0.00000000
Si      -2.57768073      -2.64170532      -0.02348352       0.00000000
Si       2.00943666      -0.58881834       3.15011628       0.00000000
Si       3.47946255      -0.98329698      -1.27181598       0.00000000
