10
Lattice="16.28999089631971 0.0 0.0 0.0 16.28999089631971 0.0 0.0 0.0 34.63643526849801" Properties=species:S:1:pos:R:3:initial_magmoms:R:1 pbc="T T T"
Si       1.16528886       1.99801102      -0.28284129       0.00000000
Si      -1.22264595      -0.62302459       1.88678623       0.00000000
Si       1.53665199      -1.75053694      -0.22454814       0.00000000
Si      -1.06525197      -0.44854240      -2.06717288       0.00000000
Si       1.39642767       1.81258195      -2.61574505       0.00000000
Si      -1.38003993      -2.71532848      -1.73324283       0.00000000
Si       0.84848094      -0.28613110      -3.44452614       0.00000000
Si      -0.57902805      -2.93846890       2.13966698       0.00000000
Si       0.17588313      -3.71747299       0.01149930       0.00000000
Si      -3.40938297       0.24771568       1.49407811       0.00000000
