10
Lattice="16.28999089631971 0.0 0.0 0.0 16.28999089631971 0.0 0.0 0.0 34.63643526849801" Properties=species:S:1:pos:R:3:initial_magmoms:R:1 pbc="T T T"
Si      -1.33617096      -1.35759231       1.37496334       0.00000000
Si       1.35718084      -1.35334062      -1.35878811       0.00000000
Si      -1.35698958       1.36124127      -1.35906521       0.00000000
Si       1.35053941       1.36236528       1.38157890       0.00000000
Si       2.71406780      -2.71112841       0.00398319       0.00000000
Si       0.00033529      -2.71217097      -2.71577513       0.00000000
Si      -2.71557558      -2.71339272       0.00086591       0.00000000
Si      -2.71474479       0.00312768      -2.71584441       0.00000000
Si       2.71559906       0.00316026      -2.71549804       0.00000000
Si       2.71230848       2.72069064       0.00155864       0.00000000
