10
Lattice="16.28999089631971 0.0 0.0 0.0 16.28999089631971 0.0 0.0 0.0 34.63643526849801" Properties=species:S:1:pos:R:3:initial_magmoms:R:1 pbc="T T T"
Si      -1.35474156       1.35966114       1.35563620       0.00000000
Si      -1.35677781      -1.35674523      -1.35729875       0.00000000
Si       1.35778779       1.35843939      -1.35688311       0.00000000
Si       1.35695700      -1.35808101       1.35982721       0.00000000
Si      -0.00097740      -2.70921271       2.71549804       0.00000000
Si       0.00017919      -2.71403129      -2.71418186       0.00000000
Si       2.71409319      -2.71414858       0.00020782       0.00000000
Si      -2.71419093       2.71463076       0.00045027       0.00000000
Si      -2.71494027       0.00001629      -2.71400868       0.00000000
Si       2.71542897       0.00039096      -2.71414722       0.00000000
