10
Lattice="16.28999089631971 0.0 0.0 0.0 16.28999089631971 0.0 0.0 0.0 34.63643526849801" Properties=species:S:1:pos:R:3:initial_magmoms:R:1 pbc="T T T"
Si       1.35762489       1.35658233       1.35719484       0.00000000
Si      -1.35841821      -1.35650088       1.35670993       0.00000000
Si       1.35723393      -1.35806472      -1.35788757       0.00000000
Si      -1.35776010       1.35884664      -1.35691775       0.00000000
Si      -0.00008145       2.71458189      -2.71283104       0.00000000
Si       0.00014661      -2.71366965      -2.71490922       0.00000000
Si       2.71441899       2.71513575      -0.00024246       0.00000000
Si       2.71494027      -2.71467963       0.00027709       0.00000000
Si      -2.71480073       0.00081450      -2.71508241       0.00000000
Si      -2.71518980       2.71533123      -0.00041564       0.00000000
