10
Lattice="16.28999089631971 0.0 0.0 0.0 16.28999089631971 0.0 0.0 0.0 34.63643526849801" Properties=species:S:1:pos:R:3:initial_magmoms:R:1 pbc="T T T"
Si      -2.02434201       1.20990717       0.22437495       0.00000000
Si       1.92183948       1.07217522      -1.01256211       0.00000000
Si      -0.64503513      -1.32356250      -2.08601512       0.00000000
Si      -0.07371225       0.73656864       2.58923355       0.00000000
Si      -1.26034101       0.82455093      -3.11586082       0.00000000
Si       0.90412336       1.79813907      -3.03456906       0.00000000
Si      -3.86615457      -0.02340873      -0.82071079       0.00000000
Si       2.07320291       3.36683349       0.26735879       0.00000000
Si      -2.23549299       3.29852952      -0.86944428       0.00000000
Si      -1.81817577       2.46995496       2.68971886       0.00000000
