10
Lattice="16.28999089631971 0.0 0.0 0.0 16.28999089631971 0.0 0.0 0.0 34.63643526849801" Properties=species:S:1:pos:R:3:initial_magmoms:R:1 pbc="T T T"
Si      -1.35718084       1.35334062       1.35878811       0.00000000
Si       1.35841821       1.35650088      -1.35670993       0.00000000
Si      -1.35684555      -1.35883035      -1.35698702       0.00000000
Si       1.35688695      -1.35778779       1.36277131       0.00000000
Si      -2.69335180      -0.00425169       2.73375145       0.00000000
Si      -2.71428445      -0.00158013      -2.71432040       0.00000000
Si      -2.71417042       2.71458189      -0.00027709       0.00000000
Si       0.00065812       2.71534752      -2.71362767       0.00000000
Si       2.71604310       2.71308321       0.00048491       0.00000000
Si       2.71565214      -0.00156384      -2.71459749       0.00000000
