10
Lattice="16.28999089631971 0.0 0.0 0.0 16.28999089631971 0.0 0.0 0.0 34.63643526849801" Properties=species:S:1:pos:R:3:initial_magmoms:R:1 pbc="T T T"
Si       1.35728280      -1.35550719       1.35909984       0.00000000
Si       1.35702216       1.35775521      -1.35823393       0.00000000
Si      -1.35816246      -1.35721764      -1.35813002       0.00000000
Si      -1.35858600       1.35594702       1.36176685       0.00000000
Si       2.71448415       0.00509877       2.71082212       0.00000000
Si       2.71440270      -2.71397916      -0.00110837       0.00000000
Si       2.71479366       2.71393029      -0.00024246       0.00000000
Si      -0.00060273      -2.71384884      -2.71553268       0.00000000
Si       2.71467963      -0.00004887      -2.71473604       0.00000000
Si      -0.00079821       2.71536381      -2.71497850       0.00000000
