10
Lattice="16.28999089631971 0.0 0.0 0.0 16.28999089631971 0.0 0.0 0.0 34.63643526849801" Properties=species:S:1:pos:R:3:initial_magmoms:R:1 pbc="T T T"
Si       0.93077802       1.78132779      -1.20950500       0.00000000
Si      -1.68601500      -0.94710060      -1.36696232       0.00000000
Si      -1.70079003       0.75895110       1.62424190       0.00000000
Si       1.95519652      -1.86189813      -0.08094539       0.00000000
Si       2.83296851       1.23426072       1.19627387       0.00000000
Si      -0.17335818       0.73187712       3.47642631       0.00000000
Si       2.31427699       0.40575132      -2.74632449       0.00000000
Si      -0.40293315      -2.31770862      -2.77545375       0.00000000
Si      -2.90072772      -1.23391863       2.03935981       0.00000000
Si      -2.76921855      -2.63792115      -0.09507707       0.00000000
