10
Lattice="16.28999089631971 0.0 0.0 0.0 16.28999089631971 0.0 0.0 0.0 34.63643526849801" Properties=species:S:1:pos:R:3:initial_magmoms:R:1 pbc="T T T"
Si      -1.43422047      -1.77225426      -0.50479169       0.00000000
Si       1.47502692      -0.06636546      -1.81217931       0.00000000
Si      -1.01263527       2.10509154       0.30874936       0.00000000
Si       1.08278001       0.03272661       2.09931551       0.00000000
Si       2.54909178       1.95675480      -1.48323690       0.00000000
Si       0.10147041      -3.56443119      -0.27733409       0.00000000
Si      -0.59619771      -0.82912842       3.54888578       0.00000000
Si      -2.99547036       1.60676415       1.51562198       0.00000000
Si       1.34628705       2.32714053       2.59631400       0.00000000
Si      -2.04318954      -1.49073048      -2.79779426       0.00000000
