10
Lattice="16.28999089631971 0.0 0.0 0.0 16.28999089631971 0.0 0.0 0.0 34.63643526849801" Properties=species:S:1:pos:R:3:initial_magmoms:R:1 pbc="T T T"
Si      -1.08278001      -0.03272661      -2.09931551       0.00000000
Si       0.26350704       2.29441392       0.49699849       0.00000000
Si      -1.67897772      -0.86185503       1.44957026       0.00000000
Si       2.24860644      -0.64415547       0.51206535       0.00000000
Si      -2.09541528       2.07236493      -1.79056616       0.00000000
Si       0.37828638       2.18269710       2.86079797       0.00000000
Si      -1.30582269       0.52499412       3.37213595       0.00000000
Si       2.46584988       2.71129131      -0.16130197       0.00000000
Si       3.34301329      -0.61017453      -1.57595869       0.00000000
Si       3.30432129       1.27368252       1.47450851       0.00000000
