10
Lattice="16.28999089631971 0.0 0.0 0.0 16.28999089631971 0.0 0.0 0.0 34.63643526849801" Properties=species:S:1:pos:R:3:initial_magmoms:R:1 pbc="T T T"
Si       1.34744638       1.35772263      -1.34317746       0.00000000
Si       1.35517538      -1.35840681       1.36211321       0.00000000
Si      -1.36145304       1.35902583       1.36176685       0.00000000
Si      -1.36331010      -1.36982610      -1.36698656       0.00000000
Si      -0.08361657       2.58740586      -2.74956300       0.00000000
Si       2.71376317      -2.71625976       0.00252846       0.00000000
Si       2.71273365       0.00019548       2.71892705       0.00000000
Si       2.71336733       2.71880100       0.00332510       0.00000000
Si      -2.71976211      -2.71407690       0.00817420       0.00000000
Si      -0.00195480       2.71502172       2.71906560       0.00000000
