10
Lattice="16.28999089631971 0.0 0.0 0.0 16.28999089631971 0.0 0.0 0.0 34.63643526849801" Properties=species:S:1:pos:R:3:initial_magmoms:R:1 pbc="T T T"
Si      -0.93077802      -1.78132779       1.20950500       0.00000000
Si      -1.33501437       1.31686731      -1.53716586       0.00000000
Si       1.23155236       1.51672932       1.51368234       0.00000000
Si       1.38349897      -1.37557647      -1.53681949       0.00000000
Si       1.90219049      -0.54706707       2.40577887       0.00000000
Si       2.63323682       2.65101831      -0.07446838       0.00000000
Si      -2.61679302      -2.72842839      -0.15745732       0.00000000
Si      -2.74994748       2.67467139      -0.15828860       0.00000000
Si       2.77386839      -2.73085560      -0.14173237       0.00000000
Si       1.02441850      -3.64322592       1.12855960       0.00000000
