10
Lattice="16.28999089631971 0.0 0.0 0.0 16.28999089631971 0.0 0.0 0.0 34.63643526849801" Properties=species:S:1:pos:R:3:initial_magmoms:R:1 pbc="T T T"
Si      -1.53665199       1.75053694       0.22454814       0.00000000
Si       0.80580114      -0.08379576      -2.20838571       0.00000000
Si       1.81177380       0.40439925       1.44911999       0.00000000
Si      -1.36076886      -1.96693605       0.23604744       0.00000000
Si      -2.11568004      -1.18793196       2.36421512       0.00000000
Si      -2.91669192      -0.96479154      -1.50869469       0.00000000
Si      -2.60190396       1.30199454      -1.84262475       0.00000000
Si       3.29369695      -1.04531301       0.40154042       0.00000000
Si      -0.68817105       1.46440584      -3.21997800       0.00000000
Si       3.15109755      -0.02779074      -1.75849280       0.00000000
