10
Lattice="16.28999089631971 0.0 0.0 0.0 16.28999089631971 0.0 0.0 0.0 34.63643526849801" Properties=species:S:1:pos:R:3:initial_magmoms:R:1 pbc="T T T"
Si       1.35837046      -1.35388483      -1.35806075       0.00000000
Si      -1.35695166      -1.35766411       1.35767975       0.00000000
Si       1.35817824       1.35754398       1.35740266       0.00000000
Si      -1.35628377       1.35807829      -1.36083167       0.00000000
Si      -0.00755048      -2.71496320      -2.70456331       0.00000000
Si       2.70631909       0.00392984      -2.71801958       0.00000000
Si      -2.71469058       0.00046403       2.71445895       0.00000000
Si       0.00025918       2.71487565       2.71504777       0.00000000
Si       0.00055955      -2.71484917       2.71518631       0.00000000
Si      -2.71644990      -2.71366000       0.00038100       0.00000000
