10
Lattice="16.28999089631971 0.0 0.0 0.0 16.28999089631971 0.0 0.0 0.0 34.63643526849801" Properties=species:S:1:pos:R:3:initial_magmoms:R:1 pbc="T T T"
Si      -1.98698904      -1.02159477       0.61268425       0.00000000
Si       1.74061908      -1.00771569       1.20039561       0.00000000
Si       0.53840079       2.25901575       0.39928905       0.00000000
Si       0.20155617      -0.90982908      -2.16848451       0.00000000
Si       3.57161508      -0.75404781      -0.26403369       0.00000000
Si      -1.38263004      -3.22905267       1.11428938       0.00000000
Si       2.51937882      -1.47295809      -2.34571925       0.00000000
Si       2.60960913       2.61376308      -0.79909764       0.00000000
Si      -0.23890914       2.67450849       2.75612660       0.00000000
Si      -2.98982913      -0.13043403       2.49683810       0.00000000
