10
Lattice="16.28999089631971 0.0 0.0 0.0 16.28999089631971 0.0 0.0 0.0 34.63643526849801" Properties=species:S:1:pos:R:3:initial_magmoms:R:1 pbc="T T T"
Si       1.35742778       1.35584928      -1.35729875       0.00000000
Si       1.35428381      -1.35645201       1.36010430       0.00000000
Si      -1.35761541      -1.35865116      -1.35736802       0.00000000
Si      -1.35868941       1.35563751       1.35986185       0.00000000
Si      -2.71493280       0.00317655       2.71141094       0.00000000
Si      -2.71462329       2.71200807       0.00034636       0.00000000
Si       2.71366802      -0.00141723      -2.71414722       0.00000000
Si      -0.00021177       2.71331127      -2.71473604       0.00000000
Si       2.71505267       2.71339272      -0.00010391       0.00000000
Si      -2.71473732      -0.00197109      -2.71414722       0.00000000
