10
Lattice="16.28999089631971 0.0 0.0 0.0 16.28999089631971 0.0 0.0 0.0 34.63643526849801" Properties=species:S:1:pos:R:3:initial_magmoms:R:1 pbc="T T T"
Si      -1.35428381       1.35645201      -1.36010430       0.00000000
Si       1.35796698       1.35581670       1.36128194       0.00000000
Si       1.36091547      -1.36094805      -1.35986185       0.00000000
Si      -1.36176907      -1.35832536       1.38002026       0.00000000
Si      -2.71297322       2.71208952      -0.00024246       0.00000000
Si      -2.71189922      -0.00219915      -2.71747232       0.00000000
Si       0.00314397       2.71230129      -2.71740305       0.00000000
Si      -2.71230848      -2.72069064      -0.00155864       0.00000000
Si       2.71814940       2.71508688      -0.00346365       0.00000000
Si       0.00329058      -2.71753038      -2.71705668       0.00000000
