10
Lattice="16.28999089631971 0.0 0.0 0.0 16.28999089631971 0.0 0.0 0.0 34.63643526849801" Properties=species:S:1:pos:R:3:initial_magmoms:R:1 pbc="T T T"
Si      -0.39301254       2.08207377      -0.92797989       0.00000000
Si      -1.89207373      -1.14508926       0.72099244       0.00000000
Si       1.20317940      -1.46999331      -1.37763035       0.00000000
Si       1.20213684      -0.40583277       1.97521310       0.00000000
Si       1.77359004      -2.41300512       0.78697489       0.00000000
Si      -1.89871190       3.05891991       0.57406460       0.00000000
Si      -0.61129854      -2.35022346      -2.75352887       0.00000000
Si       1.75107726       3.14208036      -1.01571403       0.00000000
Si      -2.64059990      -0.12357594       2.68508724       0.00000000
Si      -3.64013801      -0.91083906      -0.73616321       0.00000000
