10
Lattice="16.28999089631971 0.0 0.0 0.0 16.28999089631971 0.0 0.0 0.0 34.63643526849801" Properties=species:S:1:pos:R:3:initial_magmoms:R:1 pbc="T T T"
Si      -1.35779105       1.35086454      -1.35930766       0.00000000
Si       1.35158130      -1.35676152      -1.36114339       0.00000000
Si       1.35708732       1.35560493       1.35702166       0.00000000
Si      -1.35749131      -1.35899325       1.35698702       0.00000000
Si       2.71503801       2.71176372      -0.00381001       0.00000000
Si      -0.00014661       2.71366965       2.71490922       0.00000000
Si      -2.71494734       2.71448415      -0.00017318       0.00000000
Si       2.71479366      -0.00100998       2.71518631       0.00000000
Si      -2.71541037      -0.00166158       2.71463213       0.00000000
Si      -0.00935046      -2.71260740      -2.71843521       0.00000000
