10
Lattice="16.28999089631971 0.0 0.0 0.0 16.28999089631971 0.0 0.0 0.0 34.63643526849801" Properties=species:S:1:pos:R:3:initial_magmoms:R:1 pbc="T T T"
Si      -1.38611610      -1.29217167      -1.35651393       0.00000000
Si      -1.32453990       1.25334690       1.46346987       0.00000000
Si       1.04500350       1.56447435      -1.45211054       0.00000000
Si       1.39056327      -1.44317997       1.43781119       0.00000000
Si       2.68840386       2.54394644       0.12200691       0.00000000
Si      -2.61153787       2.65525764       0.04941583       0.00000000
Si      -0.80876592       3.26432771      -1.61684152       0.00000000
Si      -2.72593765       0.27678339      -2.64017557       0.00000000
Si      -0.89769303       1.66347520      -3.31371607       0.00000000
Si      -0.01255959      -2.64870513      -2.77795939       0.00000000
