10
Lattice="16.28999089631971 0.0 0.0 0.0 16.28999089631971 0.0 0.0 0.0 34.63643526849801" Properties=species:S:1:pos:R:3:initial_magmoms:R:1 pbc="T T T"
Si       1.04767506      -1.68166557       1.39411730       0.00000000
Si      -2.10228966       0.71677629       0.99988517       0.00000000
Si       1.45609794       1.24590807      -1.53415248       0.00000000
Si      -1.23061176      -1.46701224      -1.54762607       0.00000000
Si      -1.02377763      -3.18523257       1.22329030       0.00000000
Si       2.14397577       2.41992837       1.52712128       0.00000000
Si       2.68674228      -2.70405855      -0.09964908       0.00000000
Si      -2.98006165      -2.37938256      -0.27733409       0.00000000
Si       0.08702118       2.59387299      -2.94053109       0.00000000
Si      -2.77292778       2.78057268       0.10778865       0.00000000
