10
Lattice="16.28999089631971 0.0 0.0 0.0 16.28999089631971 0.0 0.0 0.0 34.36671206372826" Properties=species:S:1:pos:R:3:initial_magmoms:R:1 pbc="T T T"
Si       0.30347293      -2.09391660       1.11145446       0.00000000
Si      -1.50817774       1.52614494       1.08853185       0.00000000
Si      -1.08958662      -0.69486624      -2.03286089       0.00000000
Si       2.21709181       0.52160580      -0.81019569       0.00000000
Si       2.30797372      -1.61629380       2.22414611       0.00000000
Si       2.02671058      -0.44044902      -2.99674460       0.00000000
Si      -0.00450256      -3.72470850      -0.67382850       0.00000000
Si      -3.71340391       0.87566895       0.50714985       0.00000000
Si       3.75138175      -0.44009064       0.82047134       0.00000000
Si      -3.72417160      -1.40695101      -0.29386992       0.00000000
