10
Lattice="16.28999089631971 0.0 0.0 0.0 16.28999089631971 0.0 0.0 0.0 34.36671206372826" Properties=species:S:1:pos:R:3:initial_magmoms:R:1 pbc="T T T"
Si      -1.14062580       2.04324560      -0.50553462       0.00000000
Si      -1.50231267      -0.73637316       1.74552687       0.00000000
Si       1.86877251      -0.95612526      -1.24995238       0.00000000
Si       2.05718265       0.76422906       1.41669976       0.00000000
Si       0.40944915       0.15737769       2.98964585       0.00000000
Si      -1.50897528      -1.90159686      -2.25438884       0.00000000
Si       0.74158596      -2.68511328      -2.43347387       0.00000000
Si      -3.64399644       0.28869138       1.09427109       0.00000000
Si      -2.01482865       1.92385293      -2.66847358       0.00000000
Si      -3.12264313       2.52549150       0.67850238       0.00000000
