10
Lattice="16.28999089631971 0.0 0.0 0.0 16.28999089631971 0.0 0.0 0.0 34.36671206372826" Properties=species:S:1:pos:R:3:initial_magmoms:R:1 pbc="T T T"
Si       1.34913291       1.36620972      -1.36188483       0.00000000
Si      -1.42279696       1.29586950       1.35772645       0.00000000
Si      -1.36956126      -1.34891693      -1.36442796       0.00000000
Si       1.38480801      -1.37056634       1.36013212       0.00000000
Si      -0.02146370      -2.58136946       2.80487514       0.00000000
Si      -2.75406463      -2.67308216       0.00233694       0.00000000
Si       2.70470526       0.00747874      -2.72335725       0.00000000
Si      -0.00991898      -2.70694907      -2.72308232       0.00000000
Si       2.71208463      -2.71923173      -0.00003437       0.00000000
Si       2.71465845       2.71726974       0.02251021       0.00000000
