10
Lattice="16.28999089631971 0.0 0.0 0.0 16.28999089631971 0.0 0.0 0.0 34.36671206372826" Properties=species:S:1:pos:R:3:initial_magmoms:R:1 pbc="T T T"
Si       2.31658461       0.01869766      -0.44278097       0.00000000
Si       0.44851257      -1.97165919       1.23898940       0.00000000
Si      -1.39492899       0.97437006      -1.69407365       0.00000000
Si      -1.07994555       1.16180769       1.86686958       0.00000000
Si       1.58120514      -1.92081810      -1.83583642       0.00000000
Si      -1.89884385      -2.33212431       1.75620870       0.00000000
Si       0.87387705       1.53851719       3.28704038       0.00000000
Si       0.07964181       2.30240417      -2.97993927       0.00000000
Si      -2.95743321      -0.22576963       2.32418767       0.00000000
Si       3.45040119      -0.34109761       1.58526858       0.00000000
