10
Lattice="16.28999089631971 0.0 0.0 0.0 16.28999089631971 0.0 0.0 0.0 34.36671206372826" Properties=species:S:1:pos:R:3:initial_magmoms:R:1 pbc="T T T"
Si      -0.74148822       2.19053259       0.42738467       0.00000000
Si       2.17232037       0.34296966      -0.90614760       0.00000000
Si       0.03358998      -2.01306023       1.30201798       0.00000000
Si      -1.95382260      -0.37670951      -1.42017080       0.00000000
Si      -2.56699449       1.35817875       1.63389750       0.00000000
Si       1.23308784      -3.27485105      -0.30156807       0.00000000
Si      -0.80251056       2.91781593      -1.78669199       0.00000000
Si       2.57652414      -1.87961481      -1.70177180       0.00000000
Si       1.42990362       2.23373367      -2.45704945       0.00000000
Si       3.45993084       0.74859066       1.10052584       0.00000000
