10
Lattice="16.28999089631971 0.0 0.0 0.0 16.28999089631971 0.0 0.0 0.0 34.36671206372826" Properties=species:S:1:pos:R:3:initial_magmoms:R:1 pbc="T T T"
Si      -1.46533437       1.26794844       1.32731190       0.00000000
Si      -1.35446463      -1.34185617      -1.37240105       0.00000000
Si       1.36011726       1.37481084      -1.37446305       0.00000000
Si       1.43140230      -1.35909099       1.43797277       0.00000000
Si      -0.10976202       2.40205824       2.81271075       0.00000000
Si      -2.70438435      -2.70604593       0.01481206       0.00000000
Si       2.70207117       2.71446786      -0.00422711       0.00000000
Si       2.72600118      -2.70177795      -0.01309372       0.00000000
Si       0.00109143      -2.70088200      -2.73060863       0.00000000
Si      -2.71406061       0.01498680      -2.73067737       0.00000000
