10
Lattice="16.28999089631971 0.0 0.0 0.0 16.28999089631971 0.0 0.0 0.0 34.36671206372826" Properties=species:S:1:pos:R:3:initial_magmoms:R:1 pbc="T T T"
Si       0.78037245       1.95439275       0.93446579       0.00000000
Si      -0.70716519       1.40366043      -1.87831370       0.00000000
Si      -2.14751070      -0.56138598       1.20386660       0.00000000
Si       1.52516754      -1.42682481       1.57217486       0.00000000
Si       2.54006712      -1.34488611      -1.81576625       0.00000000
Si      -1.04840811       3.34989189       0.60334233       0.00000000
Si      -2.66564673       2.33694711      -0.85765615       0.00000000
Si      -1.83125664      -2.91827205       1.25665390       0.00000000
Si       0.40115754      -3.60235431       0.58629644       0.00000000
Si       1.02490164       1.61111358       3.26071546       0.00000000
