10
Lattice="16.28999089631971 0.0 0.0 0.0 16.28999089631971 0.0 0.0 0.0 34.36671206372826" Properties=species:S:1:pos:R:3:initial_magmoms:R:1 pbc="T T T"
Si       1.51106040      -1.71593973      -0.56378623       0.00000000
Si      -0.15247440       0.95482206      -2.20452271       0.00000000
Si       1.35936792       1.13205726       1.68005202       0.00000000
Si      -2.33813628      -0.63731367       0.30222103       0.00000000
Si      -2.51302572       1.14489378      -2.30356763       0.00000000
Si       3.38498055      -0.65335932      -1.54530007       0.00000000
Si      -3.54637861       1.37538099      -0.16097377       0.00000000
Si      -0.04605183       1.59373215       3.54451593       0.00000000
Si       2.11846563      -3.05207811       1.23386875       0.00000000
Si      -2.72740212      -2.78907606      -0.75108491       0.00000000
