10
Lattice="16.28999089631971 0.0 0.0 0.0 16.28999089631971 0.0 0.0 0.0 34.36671206372826" Properties=species:S:1:pos:R:3:initial_magmoms:R:1 pbc="T T T"
Si      -0.52979967      -0.34505478       2.23198173       0.00000000
Si      -1.14070725      -1.85671791      -0.87346484       0.00000000
Si      -1.37885076       1.89353331      -0.29101748       0.00000000
Si       2.26678608       0.00511506      -0.79174075       0.00000000
Si       0.28401615      -2.38930317      -2.71376893       0.00000000
Si      -3.30063582      -0.98085348      -1.37934313       0.00000000
Si       1.18732923      -1.60604739       3.13424589       0.00000000
Si       0.04779486       3.69611955      -0.63245096       0.00000000
Si       2.21231232      -0.94969071      -2.94309813       0.00000000
Si      -3.15965238       1.32439329      -1.71544976       0.00000000
