10
Lattice="16.28999089631971 0.0 0.0 0.0 16.28999089631971 0.0 0.0 0.0 34.36671206372826" Properties=species:S:1:pos:R:3:initial_magmoms:R:1 pbc="T T T"
Si       1.82550627       0.83235384      -1.20651283       0.00000000
Si       1.16595675      -0.06485049       2.08537325       0.00000000
Si      -1.75161483       1.63776402      -0.12890961       0.00000000
Si      -0.94778478      -2.21677904      -0.41394728       0.00000000
Si       2.56699449      -1.35817875      -1.63389750       0.00000000
Si      -3.12967227       0.49700790       1.36923931       0.00000000
Si      -2.93219185      -1.73125885       0.70228415       0.00000000
Si      -2.05364772       1.36785501      -2.48488650       0.00000000
Si       0.61317189      -1.73488826      -3.05406831       0.00000000
Si       2.48684769       2.71090035       0.05838908       0.00000000
