10
Lattice="16.28999089631971 0.0 0.0 0.0 16.28999089631971 0.0 0.0 0.0 34.36671206372826" Properties=species:S:1:pos:R:3:initial_magmoms:R:1 pbc="T T T"
Si      -1.35725022      -1.35097857       1.35528641       0.00000000
Si       1.35252612      -1.35871632      -1.35717658       0.00000000
Si      -1.36047564       1.35628911      -1.35635178       0.00000000
Si       1.34664543       1.34952876       1.40164713       0.00000000
Si       2.71169856      -0.00016290      -2.71352837       0.00000000
Si       2.71303434      -2.71251306      -0.00048113       0.00000000
Si       2.71205694       2.71497285       0.00848858       0.00000000
Si      -0.00338832      -2.71396287      -2.71455937       0.00000000
Si      -0.00327429       2.71516833      -2.71370020       0.00000000
Si      -2.71632492       2.71479366       0.00250877       0.00000000
