10
Lattice="16.28999089631971 0.0 0.0 0.0 16.28999089631971 0.0 0.0 0.0 34.36671206372826" Properties=species:S:1:pos:R:3:initial_magmoms:R:1 pbc="T T T"
Si       0.77532255       2.15761050      -0.60134906       0.00000000
Si      -1.40541975       0.46167489       1.86446390       0.00000000
Si       1.70595396      -1.11935106       1.24342270       0.00000000
Si      -1.35936792      -1.13205726      -1.68005202       0.00000000
Si       0.15169248      -2.84799699      -2.24383825       0.00000000
Si      -2.59327026       2.35173843       1.05694882       0.00000000
Si      -1.14986223       3.52794159      -0.34672595       0.00000000
Si       0.81357147      -3.22932960       1.70517411       0.00000000
Si       2.82253572       2.42704710       0.69668238       0.00000000
Si       1.97301222       0.02192634       3.28264144       0.00000000
