10
Lattice="16.28999089631971 0.0 0.0 0.0 16.28999089631971 0.0 0.0 0.0 34.36671206372826" Properties=species:S:1:pos:R:3:initial_magmoms:R:1 pbc="T T T"
Si       1.14070725       1.85671791       0.87346484       0.00000000
Si      -2.15992857       0.87586443      -0.50587828       0.00000000
Si       1.42472340      -0.53258526      -1.84030409       0.00000000
Si      -0.83434122      -1.72691919       1.48278699       0.00000000
Si       0.61090758       1.51166313       3.10544657       0.00000000
Si       2.41393365      -2.45085331      -0.95522330       0.00000000
Si      -2.81154649      -0.70359768       2.41484711       0.00000000
Si      -0.23814351       3.75025122       0.58244736       0.00000000
Si      -2.87090562       0.02927313      -2.55643804       0.00000000
Si      -2.01894513       3.18111120      -0.84198492       0.00000000
