10
Lattice="16.28999089631971 0.0 0.0 0.0 16.28999089631971 0.0 0.0 0.0 34.36671206372826" Properties=species:S:1:pos:R:3:initial_magmoms:R:1 pbc="T T T"
Si       1.36005210      -1.35217789      -1.36030396       0.00000000
Si      -1.35842310       1.36189805      -1.36047579       0.00000000
Si      -1.34345259      -1.35431188       1.38652577       0.00000000
Si       1.35702216       1.35411795       1.37521912       0.00000000
Si      -2.61646722       0.17630859       2.69246156       0.00000000
Si       2.71239903      -2.71030777      -0.00450204       0.00000000
Si      -2.71521720      -2.71156210       0.00501754       0.00000000
Si       0.00000000      -2.71102453      -2.71696504       0.00000000
Si       2.71482624       0.00359806      -2.71741181       0.00000000
Si      -2.71513575       0.00398386      -2.71754928       0.00000000
