10
Lattice="16.28999089631971 0.0 0.0 0.0 16.28999089631971 0.0 0.0 0.0 34.36671206372826" Properties=species:S:1:pos:R:3:initial_magmoms:R:1 pbc="T T T"
Si      -0.06283053      -1.88812992       1.40755821       0.00000000
Si       2.19823776       0.28036719      -0.90391377       0.00000000
Si      -0.60781248       1.59122349       1.70823274       0.00000000
Si      -1.28761047      -0.40562100      -2.00667344       0.00000000
Si       1.16691786      -1.18001991       3.26604231       0.00000000
Si      -3.45993084      -0.74859066      -1.10052584       0.00000000
Si       1.11267216      -3.59988542       0.22936356       0.00000000
Si      -2.22391080      -2.39796782       2.14836747       0.00000000
Si       0.06959088       3.77147709       1.08519827       0.00000000
Si      -0.88340670      -2.62820547      -2.80229763       0.00000000
