10
Lattice="16.28999089631971 0.0 0.0 0.0 16.28999089631971 0.0 0.0 0.0 34.36671206372826" Properties=species:S:1:pos:R:3:initial_magmoms:R:1 pbc="T T T"
Si       1.11635370      -1.50223122       1.41370986       0.00000000
Si      -2.07031239       0.16669557       1.16750659       0.00000000
Si       0.71179155       2.26124748      -0.24836837       0.00000000
Si      -0.36127962      -1.34080872      -1.96316516       0.00000000
Si       0.09027918      -3.43975472       0.50436615       0.00000000
Si      -1.35788553       3.32019522       0.05223743       0.00000000
Si      -1.81827351       2.26872459       2.16699424       0.00000000
Si       1.07136072      -3.15378377      -1.64853773       0.00000000
Si      -2.47625919       2.27612025      -1.76555645       0.00000000
Si      -3.71778525       0.84708000      -0.35573004       0.00000000
