10
Lattice="16.28999089631971 0.0 0.0 0.0 16.28999089631971 0.0 0.0 0.0 34.36671206372826" Properties=species:S:1:pos:R:3:initial_magmoms:R:1 pbc="T T T"
Si       0.36346248       0.91912090      -2.10197238       0.00000000
Si       1.43264034      -1.81297504       0.31462742       0.00000000
Si      -2.14334046      -0.97954606       0.16265774       0.00000000
Si       0.36127962       1.34080872       1.96316516       0.00000000
Si       0.45155880      -2.09894599       2.46753131       0.00000000
Si      -0.44173593       3.07978251      -1.55358245       0.00000000
Si      -1.92785634      -2.26088488       2.13063424       0.00000000
Si       1.47763332      -0.16142250       3.37687501       0.00000000
Si       3.63908826      -0.96508054       0.40298429       0.00000000
Si      -2.62229904      -2.13548446      -1.82872250       0.00000000
