10
Lattice="16.28999089631971 0.0 0.0 0.0 16.28999089631971 0.0 0.0 0.0 34.36671206372826" Properties=species:S:1:pos:R:3:initial_magmoms:R:1 pbc="T T T"
Si       1.88631684       1.06978059      -0.71561845       0.00000000
Si      -0.78037245      -1.95439275      -0.93446579       0.00000000
Si      -1.82878056       1.39549914      -0.33112346       0.00000000
Si       0.24452919      -0.34327917       2.32624967       0.00000000
Si      -1.48753764      -0.55073232      -2.81277949       0.00000000
Si       1.41019272       3.18521628      -0.01543066       0.00000000
Si       0.74479509      -3.38121756       0.63770907       0.00000000
Si      -0.99215874       1.48095648       3.10919254       0.00000000
Si      -2.95277427       1.25527482       1.80074799       0.00000000
Si       3.61688499      -0.52826841      -0.63925557       0.00000000
