10
Lattice="16.28999089631971 0.0 0.0 0.0 16.28999089631971 0.0 0.0 0.0 34.36671206372826" Properties=species:S:1:pos:R:3:initial_magmoms:R:1 pbc="T T T"
Si       1.96116287       0.79600270      -0.97344729       0.00000000
Si      -1.40379491       1.27914782       1.44019973       0.00000000
Si       1.30299800      -1.42860439       1.44800786       0.00000000
Si      -0.85669436      -0.34560375      -2.23627211       0.00000000
Si      -1.37804766      -2.58240387      -1.82050340       0.00000000
Si       1.12532297      -0.82784965      -3.42030910       0.00000000
Si       2.65905905       2.62121575       0.23341540       0.00000000
Si       2.67539792      -2.71371756       0.07487136       0.00000000
Si      -0.04784210       2.63401969       2.82149489       0.00000000
Si       0.76363610      -3.60746841      -1.16924761       0.00000000
