10
Lattice="16.28999089631971 0.0 0.0 0.0 16.28999089631971 0.0 0.0 0.0 34.36671206372826" Properties=species:S:1:pos:R:3:initial_magmoms:R:1 pbc="T T T"
Si      -0.86820813      -2.03893785       0.64667878       0.00000000
Si       0.49319604      -0.13546764      -2.29841262       0.00000000
Si      -1.81781739       1.42089525       0.65368960       0.00000000
Si       2.19647844       0.27261315       0.95903800       0.00000000
Si       1.11369843       2.05563510      -2.65623903       0.00000000
Si       0.61937838      -3.51885177      -0.45938010       0.00000000
Si      -2.91542130      -2.30837445      -0.65135266       0.00000000
Si      -0.58124349      -2.39888169       3.03640381       0.00000000
Si      -1.33885881       2.57683365       2.64506984       0.00000000
Si       2.96399808      -1.72348200       1.92604909       0.00000000
