10
Lattice="16.28999089631971 0.0 0.0 0.0 16.28999089631971 0.0 0.0 0.0 34.36671206372826" Properties=species:S:1:pos:R:3:initial_magmoms:R:1 pbc="T T T"
Si       0.76751964      -1.99609515       0.96701108       0.00000000
Si       0.04064355       1.47079152       1.83800152       0.00000000
Si      -2.19647844      -0.27261315      -0.95903800       0.00000000
Si       1.78812072       0.10510308      -1.66908904       0.00000000
Si       0.69602283      -3.42617796      -0.81624423       0.00000000
Si      -1.70328240      -0.40808079      -3.25745062       0.00000000
Si       1.15672032       1.92673233      -2.96279027       0.00000000
Si       1.77735303      -2.17751688      -2.47010881       0.00000000
Si       2.24709147       2.31868602       1.92635839       0.00000000
Si       2.98765116      -1.65092634       1.66015369       0.00000000
