10
Lattice="16.28999089631971 0.0 0.0 0.0 16.28999089631971 0.0 0.0 0.0 34.36671206372826" Properties=species:S:1:pos:R:3:initial_magmoms:R:1 pbc="T T T"
Si       0.48778776      -1.67958045       1.54853054       0.00000000
Si       1.02607452       1.93752350       0.90934371       0.00000000
Si       0.98108154       0.28597095      -2.15290388       0.00000000
Si      -2.37941514      -0.16193889      -0.33689707       0.00000000
Si      -0.45155880       2.09894599      -2.46753131       0.00000000
Si      -0.09027918       3.43975472      -0.50436615       0.00000000
Si       0.30305916       1.36977723       3.27020068       0.00000000
Si      -2.59489926       1.11939993      -2.30487357       0.00000000
Si      -1.65156165      -2.63137257       1.92694262       0.00000000
Si       3.30986736       1.62805161       0.28012323       0.00000000
