10
Lattice="16.28999089631971 0.0 0.0 0.0 16.28999089631971 0.0 0.0 0.0 34.36671206372826" Properties=species:S:1:pos:R:3:initial_magmoms:R:1 pbc="T T T"
Si      -1.34607528      -1.34804637      -1.36322513       0.00000000
Si       1.31033502      -1.42099299       1.35947916       0.00000000
Si       1.36641095       1.36563957      -1.36838014       0.00000000
Si      -1.34073216       1.42482114       1.38298600       0.00000000
Si       2.24734626       0.25257645       2.60743827       0.00000000
Si       0.42414273       1.99633950       3.10874578       0.00000000
Si      -2.69050527       2.72805372      -0.01958904       0.00000000
Si      -2.70643689      -2.71556092       0.01415909       0.00000000
Si      -2.70827766       0.00609246      -2.72205132       0.00000000
Si       2.70207347       2.72826549      -0.00738885       0.00000000
