10
Lattice="16.28999089631971 0.0 0.0 0.0 16.28999089631971 0.0 0.0 0.0 34.36671206372826" Properties=species:S:1:pos:R:3:initial_magmoms:R:1 pbc="T T T"
Si      -1.67612697      -1.61183101       0.02934919       0.00000000
Si       1.72845045      -1.28950078       1.10069767       0.00000000
Si      -0.72430227       1.95286801       1.23706486       0.00000000
Si       1.37210670       1.29488233      -1.62269395       0.00000000
Si       2.81308752       0.74366131       1.67819622       0.00000000
Si       0.96868485       1.69139722       2.84714622       0.00000000
Si       0.42963246      -1.78367422       3.02282895       0.00000000
Si      -1.80986787      -1.92738460       2.37034219       0.00000000
Si      -0.95711895      -3.36864235      -1.36528713       0.00000000
Si      -0.24340518       3.83551960      -0.23682115       0.00000000
