10
Lattice="16.28999089631971 0.0 0.0 0.0 16.28999089631971 0.0 0.0 0.0 34.36671206372826" Properties=species:S:1:pos:R:3:initial_magmoms:R:1 pbc="T T T"
Si      -1.56147795      -0.20268507      -1.74390541       0.00000000
Si       1.97890010      -0.98572908      -0.94628795       0.00000000
Si      -0.43385157      -1.67399691       1.69458915       0.00000000
Si      -0.47713410       2.42418332       0.00921028       0.00000000
Si       1.16919846       3.24174584       1.40999825       0.00000000
Si       1.31240385      -3.23710386      -1.31947628       0.00000000
Si       1.01292849      -3.46636932       0.97006972       0.00000000
Si       2.45447850       0.26855368      -2.84075401       0.00000000
Si      -0.98517033       1.40912084      -3.37024224       0.00000000
Si      -3.70947735       0.21020453      -0.81036752       0.00000000
