10
Lattice="16.28999089631971 0.0 0.0 0.0 16.28999089631971 0.0 0.0 0.0 34.36671206372826" Properties=species:S:1:pos:R:3:initial_magmoms:R:1 pbc="T T T"
Si      -1.35553977      -1.35681039      -1.35690165       0.00000000
Si      -1.35651717       1.35386190       1.35958226       0.00000000
Si       1.35931905       1.35783666      -1.35679855       0.00000000
Si       1.36220238      -1.35413883       1.35882619       0.00000000
Si      -2.70353727      -0.00141723       2.71840844       0.00000000
Si       0.01777239       2.72196126       2.70246228       0.00000000
Si      -2.71217097       0.00026064      -2.71349400       0.00000000
Si      -2.71360449      -2.71387328       0.00051550       0.00000000
Si       0.00234576       2.71477737      -2.71359710       0.00000000
Si      -2.71420722       2.71495656       0.00113410       0.00000000
