10
Lattice="16.28999089631971 0.0 0.0 0.0 16.28999089631971 0.0 0.0 0.0 34.36671206372826" Properties=species:S:1:pos:R:3:initial_magmoms:R:1 pbc="T T T"
Si      -1.34977311       1.30323258      -1.40257504       0.00000000
Si      -1.92350691      -0.83766438       1.14375918       0.00000000
Si       1.34073216      -1.42482114      -1.38298600       0.00000000
Si       1.76487489       0.57151836       1.72575978       0.00000000
Si      -0.46999908      -1.21614624       2.91185877       0.00000000
Si       2.47544469       2.38806513       0.08289256       0.00000000
Si      -2.80614798       2.51134785      -0.05282167       0.00000000
Si      -2.64020175      -2.75142987       0.03959047       0.00000000
Si      -0.01223379       2.65909815      -2.74566126       0.00000000
Si       2.70714311      -0.05918157      -2.75136614       0.00000000
