10
Lattice="16.28999089631971 0.0 0.0 0.0 16.28999089631971 0.0 0.0 0.0 34.36671206372826" Properties=species:S:1:pos:R:3:initial_magmoms:R:1 pbc="T T T"
Si       0.61936209      -0.57169755      -2.17170248       0.00000000
Si       2.22006636       0.56353626       0.65399890       0.00000000
Si      -1.20720303       2.05301241       0.06773683       0.00000000
Si      -0.48089709      -1.88265159       1.47388600       0.00000000
Si       1.61551188      -2.54063727      -1.38587281       0.00000000
Si      -0.85056606       2.73409731       2.31002858       0.00000000
Si       3.43934028      -1.42224732       0.20101101       0.00000000
Si       0.24340518      -3.83551960       0.23682115       0.00000000
Si      -3.58515207       1.49765373      -0.19389710       0.00000000
Si       3.10886505       2.17026783      -0.97134129       0.00000000
