10
Lattice="16.28999089631971 0.0 0.0 0.0 16.28999089631971 0.0 0.0 0.0 34.36671206372826" Properties=species:S:1:pos:R:3:initial_magmoms:R:1 pbc="T T T"
Si      -1.00445769       2.11300848      -0.14781131       0.00000000
Si       0.14284701      -0.21962178      -2.34879425       0.00000000
Si      -1.78963569      -1.06279218       1.18221556       0.00000000
Si       2.09507319       0.02741607       1.20513817       0.00000000
Si       1.55103606       1.71492975      -2.90110199       0.00000000
Si      -3.73964643      -0.45072801      -0.06557172       0.00000000
Si       1.73371212      -1.85645727      -2.78576724       0.00000000
Si       1.67943384      -1.32362766       3.10795534       0.00000000
Si      -3.27758058       1.74772152      -0.74998518       0.00000000
Si      -1.97978886       0.11432322       3.24287913       0.00000000
