10
Lattice="16.28999089631971 0.0 0.0 0.0 16.28999089631971 0.0 0.0 0.0 34.36671206372826" Properties=species:S:1:pos:R:3:initial_magmoms:R:1 pbc="T T T"
Si      -1.64633256      -0.81756252      -1.40078797       0.00000000
Si       1.14715876      -1.47779622       1.38748804       0.00000000
Si       1.79877668       0.10166589      -1.53323735       0.00000000
Si      -0.47022714       2.19274803       0.79775493       0.00000000
Si       2.28450050       0.26427267       2.52124651       0.00000000
Si       1.93976011       2.40691266      -1.86934398       0.00000000
Si       1.23318462       2.44947843       2.37577213       0.00000000
Si      -0.05458779       3.54379176      -1.10506224       0.00000000
Si      -1.16919846      -3.24174584      -1.40999825       0.00000000
Si      -3.72674475       0.10103058      -0.69785085       0.00000000
