10
Lattice="16.28999089631971 0.0 0.0 0.0 16.28999089631971 0.0 0.0 0.0 34.36671206372826" Properties=species:S:1:pos:R:3:initial_magmoms:R:1 pbc="T T T"
Si      -1.35164646      -1.34627076       1.37857331       0.00000000
Si       1.35812988       1.37373570       1.38108208       0.00000000
Si      -1.64550177       1.11086397      -1.39384932       0.00000000
Si       1.50195429      -1.33309215      -1.45293604       0.00000000
Si      -0.14801094       2.35281357      -2.61213517       0.00000000
Si       2.70273906       2.71393029       0.00244691       0.00000000
Si      -2.72855871      -2.70972747      -0.00157400       0.00000000
Si       2.73672000      -2.70184311       0.01608363       0.00000000
Si      -2.72359026       2.71920825       0.01235828       0.00000000
Si      -0.00105885      -2.70487305       2.73973644       0.00000000
