10
Lattice="16.28999089631971 0.0 0.0 0.0 16.28999089631971 0.0 0.0 0.0 34.36671206372826" Properties=species:S:1:pos:R:3:initial_magmoms:R:1 pbc="T T T"
Si       1.35627282       1.35588186       1.35762335       0.00000000
Si      -1.35694071       1.35723393      -1.35745152       0.00000000
Si      -1.35741312      -1.35998694       1.35569882       0.00000000
Si       1.35783666      -1.35791811      -1.35745152       0.00000000
Si      -0.00377928      -2.71078632       2.71610587       0.00000000
Si       2.71376374      -0.00294849      -2.71466247       0.00000000
Si      -0.00187335       2.71529865       2.71321907       0.00000000
Si       0.00185706       2.71415835      -2.71449064       0.00000000
Si      -2.71427238       2.71458189       0.00075607       0.00000000
Si       2.71542071       2.71414206       0.00013747       0.00000000
