10
Lattice="16.28999089631971 0.0 0.0 0.0 16.28999089631971 0.0 0.0 0.0 34.36671206372826" Properties=species:S:1:pos:R:3:initial_magmoms:R:1 pbc="T T T"
Si      -0.97805160      -1.78284276      -1.11169502       0.00000000
Si      -0.19987830       0.99013878       2.10513412       0.00000000
Si       1.83001860       0.93898818      -1.11162629       0.00000000
Si      -1.80527409       1.71261657       0.02360994       0.00000000
Si      -2.15474835      -0.30714795      -2.45577788       0.00000000
Si       0.58518567       2.40738507      -2.45763369       0.00000000
Si       1.22710941       3.00638466       1.39443012       0.00000000
Si      -2.60947555      -2.78283699       0.15904923       0.00000000
Si       3.18559095       2.07309798       0.37377257       0.00000000
Si       1.74524544       0.10805157       3.45595286       0.00000000
