10
Lattice="16.28999089631971 0.0 0.0 0.0 16.28999089631971 0.0 0.0 0.0 34.36671206372826" Properties=species:S:1:pos:R:3:initial_magmoms:R:1 pbc="T T T"
Si       0.25949970      -2.30431824       0.71438124       0.00000000
Si       1.50594534      -1.57628556      -1.26985072       0.00000000
Si      -2.52151281      -0.03455109       0.14784568       0.00000000
Si       1.65882699       1.48289499       1.22091250       0.00000000
Si      -0.18243171       1.13485914      -2.28226026       0.00000000
Si      -1.35576783       2.86474311      -1.22933234       0.00000000
Si      -2.48813460       0.49388022       2.52488938       0.00000000
Si      -1.48209678      -3.46880889      -0.27957336       0.00000000
Si       1.99656756       1.90171089      -2.76514720       0.00000000
Si      -0.32524614       3.91782645       0.66760812       0.00000000
