10
Lattice="16.28999089631971 0.0 0.0 0.0 16.28999089631971 0.0 0.0 0.0 34.36671206372826" Properties=species:S:1:pos:R:3:initial_magmoms:R:1 pbc="T T T"
Si      -1.35234693       1.35812988      -1.35580192       0.00000000
Si       1.35814617      -1.35941679      -1.35559571       0.00000000
Si       1.33012737       1.39004199       1.36965171       0.00000000
Si      -1.35177678      -1.35431802       1.38917201       0.00000000
Si      -2.71239903       2.71030777       0.00450204       0.00000000
Si      -2.71239903      -0.00071676      -2.71246300       0.00000000
Si      -2.71106325      -2.71415835       0.00824802       0.00000000
Si       0.00242721       2.71390583      -2.71290977       0.00000000
Si       0.00187335      -2.71529865      -2.71321907       0.00000000
Si       2.71463075       2.71420722       0.00288681       0.00000000
