10
Lattice="16.28999089631971 0.0 0.0 0.0 16.28999089631971 0.0 0.0 0.0 34.36671206372826" Properties=species:S:1:pos:R:3:initial_magmoms:R:1 pbc="T T T"
Si      -1.31512428       1.25871201      -1.43460483       0.00000000
Si       1.41747665       1.35042471       1.36793337       0.00000000
Si      -1.53342657      -0.94014477       1.59303546       0.00000000
Si       1.40988225      -1.48887342      -1.42123617       0.00000000
Si      -2.54433510      -2.71699281       0.12066159       0.00000000
Si       0.23045335      -1.04454738       3.57170001       0.00000000
Si       2.49345233      -0.13725954       2.80697151       0.00000000
Si       0.06937910       2.58287724      -2.80136973       0.00000000
Si      -2.79591786       2.58357752       0.18991056       0.00000000
Si       2.82374837       2.56122783      -0.07680964       0.00000000
