10
Lattice="16.28999089631971 0.0 0.0 0.0 16.28999089631971 0.0 0.0 0.0 34.36671206372826" Properties=species:S:1:pos:R:3:initial_magmoms:R:1 pbc="T T T"
Si       0.32953041      -2.19646215      -0.84882390       0.00000000
Si      -1.24097220      -0.84347991       1.87119978       0.00000000
Si       2.05066665       1.24499583       0.25434818       0.00000000
Si      -1.46303748       1.40154273      -1.49828638       0.00000000
Si       3.17893162      -0.40565358       1.64352019       0.00000000
Si       0.54434664      -1.11773835       3.38251116       0.00000000
Si       3.20541460       0.13212819      -1.82597317       0.00000000
Si       1.22253192       3.48068430       0.96769842       0.00000000
Si      -2.18204550       3.15835407      -0.10365006       0.00000000
Si      -3.66907815       0.37980135      -1.21685722       0.00000000
