10
Lattice="16.28999089631971 0.0 0.0 0.0 16.28999089631971 0.0 0.0 0.0 34.36671206372826" Properties=species:S:1:pos:R:3:initial_magmoms:R:1 pbc="T T T"
Si      -1.37805744      -1.14075612       1.49814892       0.00000000
Si      -0.30203289      -0.26990901      -2.35597690       0.00000000
Si       1.75161483      -1.63776402       0.12890961       0.00000000
Si       0.38926584       2.15176239       1.05330595       0.00000000
Si      -2.88180593       1.26408771      -0.01402163       0.00000000
Si      -0.66708039      -0.29416482       3.54870867       0.00000000
Si      -1.18057702      -3.36902287       0.83119376       0.00000000
Si      -0.41901627       2.08476162      -2.99475133       0.00000000
Si       3.57712110      -0.80541018      -1.07760323       0.00000000
Si      -0.52609695       2.01108195       3.21260204       0.00000000
