10
Lattice="16.28999089631971 0.0 0.0 0.0 16.28999089631971 0.0 0.0 0.0 34.36671206372826" Properties=species:S:1:pos:R:3:initial_magmoms:R:1 pbc="T T T"
Si       1.42664562       1.80258624      -0.34143348       0.00000000
Si      -0.70297866       0.80231508       2.08252081       0.00000000
Si      -1.78080162      -0.56914002      -1.42443228       0.00000000
Si       1.37885076      -1.89353331       0.29101748       0.00000000
Si       0.84905109      -2.23858809       2.52299921       0.00000000
Si      -1.92178506      -2.87438679      -1.08832565       0.00000000
Si      -0.86543883      -0.42845958      -3.58372837       0.00000000
Si      -1.49325543       3.02330997       1.73297679       0.00000000
Si       2.65523742       2.04863040       1.77438870       0.00000000
Si      -2.48737711      -0.52657425       2.82068384       0.00000000
