10
Lattice="16.28999089631971 0.0 0.0 0.0 16.28999089631971 0.0 0.0 0.0 34.36671206372826" Properties=species:S:1:pos:R:3:initial_magmoms:R:1 pbc="T T T"
Si       1.35559497       1.35785295       1.35721095       0.00000000
Si      -1.35758502      -1.35801911       1.35607685       0.00000000
Si       1.35733637      -1.35825694      -1.35765772       0.00000000
Si      -1.35828549       1.35811359      -1.35731405       0.00000000
Si      -0.00011729       2.71645524       2.71046973       0.00000000
Si      -2.71260351       0.00276930       2.71562474       0.00000000
Si      -0.00089435       2.71458189      -2.71387203       0.00000000
Si       2.71433572       2.71467963      -0.00034367       0.00000000
Si       2.71490587       0.00130320      -2.71514360       0.00000000
Si      -2.71548684       2.71474479       0.00000000       0.00000000
