10
Lattice="16.28999089631971 0.0 0.0 0.0 16.28999089631971 0.0 0.0 0.0 34.36671206372826" Properties=species:S:1:pos:R:3:initial_magmoms:R:1 pbc="T T T"
Si       1.35768842       1.35764118      -1.35683292       0.00000000
Si      -1.35771224      -1.35741312      -1.35714222       0.00000000
Si       1.35754181      -1.35628911       1.35985719       0.00000000
Si      -1.35549356       1.35879777       1.36057889       0.00000000
Si      -0.02183512      -2.70817992       2.71442190       0.00000000
Si       2.71487348       2.71362078       0.00092790       0.00000000
Si      -0.00017756      -2.71472850      -2.71418134       0.00000000
Si       2.71502009       0.00009774      -2.71407824       0.00000000
Si       2.71420559      -2.71500543       0.00058423       0.00000000
Si      -2.71525860       0.00034209      -2.71442190       0.00000000
