10
Lattice="16.28999089631971 0.0 0.0 0.0 16.28999089631971 0.0 0.0 0.0 34.36671206372826" Properties=species:S:1:pos:R:3:initial_magmoms:R:1 pbc="T T T"
Si      -1.35462752       1.35694464      -1.36009776       0.00000000
Si      -1.38450338      -1.32416523       1.36676490       0.00000000
Si       1.35964228      -1.35803214      -1.35865435       0.00000000
Si       1.36956126       1.34891693       1.36442796       0.00000000
Si      -0.05323571       2.64478643       2.72215442       0.00000000
Si      -0.06937910      -2.58287724       2.80136973       0.00000000
Si      -2.70964601       2.71773305      -0.00054987       0.00000000
Si      -2.71220354      -0.00030139      -2.71579657       0.00000000
Si      -2.71463075      -2.71420722      -0.00288681       0.00000000
Si       0.00295751       2.71496375      -2.71617461       0.00000000
