10
Lattice="16.28999089631971 0.0 0.0 0.0 16.28999089631971 0.0 0.0 0.0 34.36671206372826" Properties=species:S:1:pos:R:3:initial_magmoms:R:1 pbc="T T T"
Si      -1.35697897      -1.35733167      -1.35731405       0.00000000
Si       1.35823739       1.35747158      -1.35721095       0.00000000
Si      -1.35964228       1.35803214       1.35865435       0.00000000
Si       1.35971978      -1.35760860       1.35930732       0.00000000
Si       2.71462424       2.71442781      -0.00027493       0.00000000
Si      -2.71433495       0.00016290      -2.71476557       0.00000000
Si      -2.71426979       2.71497678      -0.00144340       0.00000000
Si      -0.00033883      -2.71412577      -2.71517797       0.00000000
Si       0.00065160       2.71473894      -2.71517797       0.00000000
Si       0.00991898       2.70694907       2.72308232       0.00000000
