10
Lattice="10.86 0.0 0.0 0.0 10.86 0.0 0.0 0.0 10.86" Properties=species:S:1:pos:R:3:initial_magmoms:R:1 pbc="T T T"
Si       1.37007588      -1.31757864      -1.21364844       0.00000000
Si      -1.34492412       1.39742136      -1.21364844       0.00000000
Si      -1.34492412      -1.31757864       1.50135156       0.00000000
Si      -2.47422294       2.73613356       0.37491978       0.00000000
Si       0.01257588      -2.67507864      -2.57114844       0.00000000
Si      -2.70242412       0.03992136      -2.57114844       0.00000000
Si       2.72757588       0.03992136      -2.57114844       0.00000000
Si       0.01257588       2.75492136      -2.57114844       0.00000000
Si      -2.70242412      -2.67507864       0.14385156       0.00000000
Si       2.72757588      -2.67507864       0.14385156       0.00000000
