10
Lattice="16.28999089631971 0.0 0.0 0.0 16.28999089631971 0.0 0.0 0.0 34.51530692428229" Properties=species:S:1:pos:R:3:initial_magmoms:R:1 pbc="T T T"
Si      -1.34016201      -1.33483764       1.39044301       0.00000000
Si       1.37674935       1.37775102       1.38485153       0.00000000
Si      -1.48642992       1.26714355      -1.45738894       0.00000000
Si       1.35190710      -1.43357133      -1.49221836       0.00000000
Si       2.19372543       0.61621796      -2.49977906       0.00000000
Si       0.34653717       2.11912195      -2.75665769       0.00000000
Si      -2.67573024      -2.69989077       0.00534988       0.00000000
Si       2.73414618      -2.69555763       0.01054443       0.00000000
Si       0.01477503      -2.69583456       2.74741306       0.00000000
Si      -2.70798444       2.73661069       0.00281990       0.00000000
