10
Lattice="16.28999089631971 0.0 0.0 0.0 16.28999089631971 0.0 0.0 0.0 34.51530692428229" Properties=species:S:1:pos:R:3:initial_magmoms:R:1 pbc="T T T"
Si       1.35630540      -1.35499473       1.35804003       0.00000000
Si       1.35654975       1.35656441      -1.35669393       0.00000000
Si      -1.35904212      -1.35751254      -1.35627974       0.00000000
Si      -1.35953082       1.35519605       1.35838518       0.00000000
Si       2.71073745      -2.71618713       0.00165674       0.00000000
Si       2.71305063       2.71415672       0.00079385       0.00000000
Si       2.71375110      -0.00091550      -2.71345689       0.00000000
Si      -0.00187335       2.71461284      -2.71342237       0.00000000
Si      -0.00149868      -2.71548666      -2.71349140       0.00000000
Si      -2.71620437       2.71285352       0.00027612       0.00000000
