10
Lattice="16.28999089631971 0.0 0.0 0.0 16.28999089631971 0.0 0.0 0.0 34.51530692428229" Properties=species:S:1:pos:R:3:initial_magmoms:R:1 pbc="T T T"
Si      -1.73061702      -0.82350837      -1.43846074       0.00000000
Si       1.90610919      -1.62181611      -0.07696918       0.00000000
Si       1.01636568       1.91552481      -1.30699186       0.00000000
Si      -0.88596423      -1.15514019       2.32329564       0.00000000
Si       1.42288263      -1.92890542       2.28215337       0.00000000
Si      -0.23310990      -2.08029653      -2.77948470       0.00000000
Si       2.47889817       0.66165093      -2.77996792       0.00000000
Si       1.06898238       1.28080125       3.43254919       0.00000000
Si      -3.26751336      -1.99148997       0.05915927       0.00000000
Si       1.10864853      -3.52980584      -1.21890875       0.00000000
