10
Lattice="16.28999089631971 0.0 0.0 0.0 16.28999089631971 0.0 0.0 0.0 34.51530692428229" Properties=species:S:1:pos:R:3:initial_magmoms:R:1 pbc="T T T"
Si       1.64633256       1.52790426       0.73265683       0.00000000
Si      -1.60370163       0.50259537       1.87825502       0.00000000
Si       1.09305900      -2.17640916       0.90585474       0.00000000
Si      -0.71200332       0.80770707      -2.41538253       0.00000000
Si       3.33870066      -1.51922169       0.41542647       0.00000000
Si      -1.98962802       3.06010908      -0.93032610       0.00000000
Si       3.74661855       0.39273561      -0.88600842       0.00000000
Si      -2.41958628       2.69268813       1.51228902       0.00000000
Si       2.66165568       1.11964428       2.87029453       0.00000000
Si       1.17423207       3.80166246       1.06562618       0.00000000
