10
Lattice="16.28999089631971 0.0 0.0 0.0 16.28999089631971 0.0 0.0 0.0 34.51530692428229" Properties=species:S:1:pos:R:3:initial_magmoms:R:1 pbc="T T T"
Si       1.35351981      -1.35883035      -1.36242347       0.00000000
Si      -1.36148562       1.35791811      -1.36218186       0.00000000
Si      -1.34644995      -1.37282346       1.36773883       0.00000000
Si       1.35420399       1.35615879       1.38164851       0.00000000
Si       2.71026504       2.71557558       0.00217447       0.00000000
Si       2.71529865      -2.71402803      -0.00131158       0.00000000
Si       2.71230129       0.00063531      -2.71991125       0.00000000
Si      -2.71819827       2.71580364      -0.00082837       0.00000000
Si      -0.00276930      -2.71458189      -2.71966964       0.00000000
Si      -2.71754667      -2.71689507      -0.00162222       0.00000000
