10
Lattice="16.28999089631971 0.0 0.0 0.0 16.28999089631971 0.0 0.0 0.0 34.51530692428229" Properties=species:S:1:pos:R:3:initial_magmoms:R:1 pbc="T T T"
Si       2.27281338      -0.50241618      -0.10468498       0.00000000
Si      -1.54263042      -1.38373776      -1.11449988       0.00000000
Si      -0.06700077       2.11880772      -1.12782280       0.00000000
Si      -1.04989050       1.24540308       1.77408777       0.00000000
Si       0.01094688       3.15175662       0.97999366       0.00000000
Si      -3.18707334      -1.01367783       0.42391724       0.00000000
Si       2.00357226       2.37288285       1.99108562       0.00000000
Si       3.36834846       1.50563583       0.35026153       0.00000000
Si      -1.94235444      -0.25974405      -3.15967102       0.00000000
Si      -3.35341053       1.12233213       1.32897812       0.00000000
