10
Lattice="16.28999089631971 0.0 0.0 0.0 16.28999089631971 0.0 0.0 0.0 34.51530692428229" Properties=species:S:1:pos:R:3:initial_magmoms:R:1 pbc="T T T"
Si      -1.35614250      -1.35752715      -1.35814357       0.00000000
Si       1.35886293       1.35710361      -1.35783293       0.00000000
Si      -1.35671265       1.35788553       1.36135350       0.00000000
Si       1.36148562      -1.35791811       1.36218186       0.00000000
Si       2.71327869       2.71440270       0.00010355       0.00000000
Si      -2.71367291      -2.71430496       0.00058676       0.00000000
Si      -2.71359472       0.00027693      -2.71542426       0.00000000
Si      -2.71453628       2.71539639      -0.00020709       0.00000000
Si       0.00120546      -2.71494027      -2.71518265       0.00000000
Si       0.00104256       2.71510317      -2.71504459       0.00000000
