10
Lattice="16.28999089631971 0.0 0.0 0.0 16.28999089631971 0.0 0.0 0.0 34.51530692428229" Properties=species:S:1:pos:R:3:initial_magmoms:R:1 pbc="T T T"
Si      -0.58813416      -2.10776310       0.89550014       0.00000000
Si      -1.62429219       1.35513971       1.08160678       0.00000000
Si       1.89623745       1.38867104       0.42481464       0.00000000
Si       0.14957478      -0.64681074      -2.31000724       0.00000000
Si       2.41015437      -1.46170170      -2.31231976       0.00000000
Si       1.51109298      -3.07990143       1.28659330       0.00000000
Si       1.07663868       3.57269741      -0.13992513       0.00000000
Si      -3.74772464       0.63647931       0.16256719       0.00000000
Si      -1.54259784      -3.41029521      -0.80669220       0.00000000
Si      -1.21200858       3.64463405       0.46568078       0.00000000
