10
Lattice="16.28999089631971 0.0 0.0 0.0 16.28999089631971 0.0 0.0 0.0 34.51530692428229" Properties=species:S:1:pos:R:3:initial_magmoms:R:1 pbc="T T T"
Si       2.26057959      -0.81489096      -0.00231253       0.00000000
Si      -0.14957478       0.64681074       2.31000724       0.00000000
Si      -1.48305789      -1.80941175      -0.62728154       0.00000000
Si      -0.52080759       2.10793156      -1.42448203       0.00000000
Si      -1.69217262      -2.76348447       1.50331503       0.00000000
Si      -0.73770894      -1.46095236       3.20550738       0.00000000
Si       1.74666267       2.03548178       2.73482187       0.00000000
Si      -2.70319518       2.82256897      -0.62835151       0.00000000
Si      -3.59001301      -0.82358982      -1.45154204       0.00000000
Si       2.88100053      -1.84464702      -2.01441798       0.00000000
