10
Lattice="16.28999089631971 0.0 0.0 0.0 16.28999089631971 0.0 0.0 0.0 34.51530692428229" Properties=species:S:1:pos:R:3:initial_magmoms:R:1 pbc="T T T"
Si       1.68015060       1.61849295      -0.18617567       0.00000000
Si       0.62042094      -1.02975606      -2.01210546       0.00000000
Si      -2.26057959       0.81489096       0.00231253       0.00000000
Si       0.71500068      -1.37619549       1.86234346       0.00000000
Si       1.68000399       2.57567773       1.91442708       0.00000000
Si      -2.41015437       1.46170170       2.31231976       0.00000000
Si       0.04209336       0.51811974      -3.74332519       0.00000000
Si       1.26353385      -3.47438007       0.95652324       0.00000000
Si      -0.59609997      -3.24695538      -2.02118299       0.00000000
Si       3.04593678      -1.43987310      -2.01051775       0.00000000
