10
Lattice="16.28999089631971 0.0 0.0 0.0 16.28999089631971 0.0 0.0 0.0 34.51530692428229" Properties=species:S:1:pos:R:3:initial_magmoms:R:1 pbc="T T T"
Si       2.25544824      -0.14659371       0.66448906       0.00000000
Si      -0.78051906       1.96132319       1.06880159       0.00000000
Si      -1.24597323      -1.80615375       0.88832095       0.00000000
Si      -0.37892169      -0.17399349      -2.34348710       0.00000000
Si      -3.46172274      -1.17170712       0.16474165       0.00000000
Si      -0.29463723       1.53007313       3.34042779       0.00000000
Si       3.30967188      -1.26499995      -1.04474441       0.00000000
Si       0.37100475      -2.37917079      -2.92676160       0.00000000
Si       1.14497523       1.10585872      -3.54141053       0.00000000
Si       3.39442875       1.90750103       0.37749412       0.00000000
