10
Lattice="16.28999089631971 0.0 0.0 0.0 16.28999089631971 0.0 0.0 0.0 34.51530692428229" Properties=species:S:1:pos:R:3:initial_magmoms:R:1 pbc="T T T"
Si       1.05422364      -1.11840624      -1.70923347       0.00000000
Si      -2.25544824       0.14659371      -0.66448906       0.00000000
Si       1.13898051       2.05409474      -0.28699494       0.00000000
Si       0.41643756      -0.64554012       2.26893400       0.00000000
Si       0.84993075       2.86660736       1.92730130       0.00000000
Si       3.07095822      -1.75298319      -0.67477463       0.00000000
Si      -0.33345630       1.41151451       3.33642401       0.00000000
Si      -3.03596730       2.10791690       0.40431253       0.00000000
Si       1.11747771       0.38825287      -3.55331832       0.00000000
Si      -0.26046081       3.46218605      -1.70702449       0.00000000
