10
Lattice="16.28999089631971 0.0 0.0 0.0 16.28999089631971 0.0 0.0 0.0 34.51530692428229" Properties=species:S:1:pos:R:3:initial_magmoms:R:1 pbc="T T T"
Si       1.24597323       1.80615375      -0.88832095       0.00000000
Si      -2.21574951       0.63444663      -0.72357930       0.00000000
Si       0.27245025      -0.20597076       2.40188704       0.00000000
Si       0.61550136      -2.24979561      -0.70784031       0.00000000
Si      -3.53584876      -1.10532537      -0.04866661       0.00000000
Si       0.86705154       1.63216026      -3.23180805       0.00000000
Si       0.46545417       3.76747694       0.18048064       0.00000000
Si      -0.97938738      -2.08606482       3.08598080       0.00000000
Si       3.50142147       1.65956004      -0.22383189       0.00000000
Si       2.56344327      -0.72461178       2.89511105       0.00000000
