10
Lattice="16.28999089631971 0.0 0.0 0.0 16.28999089631971 0.0 0.0 0.0 34.51530692428229" Properties=species:S:1:pos:R:3:initial_magmoms:R:1 pbc="T T T"
Si      -1.25183763      -1.88009406       0.68409377       0.00000000
Si       2.29099302      -0.51864102       0.49322401       0.00000000
Si      -0.27245025       0.20597076      -2.40188704       0.00000000
Si      -0.75593745       2.09018619       1.24897159       0.00000000
Si       0.67888575       3.54219764       0.05021980       0.00000000
Si       0.34305111      -2.04382485      -3.10972735       0.00000000
Si      -3.47166453      -1.40383962      -0.14303151       0.00000000
Si      -1.31554782      -1.20148524       3.32358431       0.00000000
Si      -3.07345385       2.25126171       0.57036577       0.00000000
Si       3.64540878       1.21999068      -0.35678493       0.00000000
