10
Lattice="16.28999089631971 0.0 0.0 0.0 16.28999089631971 0.0 0.0 0.0 34.51530692428229" Properties=species:S:1:pos:R:3:initial_magmoms:R:1 pbc="T T T"
Si      -1.35666378      -1.35722191       1.35703908       0.00000000
Si       1.35819504       1.35796990       1.35693553       0.00000000
Si      -1.35477414       1.35781026      -1.36180220       0.00000000
Si       1.35716877      -1.35950251      -1.35983482       0.00000000
Si       0.01205460       2.71935778      -2.70456574       0.00000000
Si      -2.71425609       0.00072577       2.71490653       0.00000000
Si       2.71572219      -2.71409746       0.00003452       0.00000000
Si       0.00092853      -2.71512373       2.71490653       0.00000000
Si      -2.71484253       2.71526899      -0.00051773       0.00000000
Si       0.00053757       2.71577398       2.71518265       0.00000000
