10
Lattice="16.28999089631971 0.0 0.0 0.0 16.28999089631971 0.0 0.0 0.0 34.51530692428229" Properties=species:S:1:pos:R:3:initial_magmoms:R:1 pbc="T T T"
Si      -0.79746066      -1.90798973      -1.14193957       0.00000000
Si      -0.48322656      -0.30708931       2.35912255       0.00000000
Si       1.90930203       0.99978246      -1.17862936       0.00000000
Si      -1.90610919       1.62181611       0.07696918       0.00000000
Si      -2.13921909      -0.45848042      -2.70251553       0.00000000
Si       0.57278898       2.28346704      -2.70299874       0.00000000
Si      -2.79207342       0.46667592       2.40026482       0.00000000
Si       0.91992888       1.32009273       3.37477054       0.00000000
Si      -0.88974351       3.53734092      -1.23002268       0.00000000
Si      -2.12390649      -3.29923718       0.23611935       0.00000000
