10
Lattice="16.28999089631971 0.0 0.0 0.0 16.28999089631971 0.0 0.0 0.0 34.51530692428229" Properties=species:S:1:pos:R:3:initial_magmoms:R:1 pbc="T T T"
Si      -0.45734175      -1.98453854       1.10735521       0.00000000
Si       0.98433954       1.64322117       1.42120307       0.00000000
Si       1.93831452       0.00509877      -1.39700783       0.00000000
Si      -2.24642358       0.34992549      -0.77217688       0.00000000
Si       0.84183462       3.28152276      -0.29859209       0.00000000
Si       1.80419895       2.21078106      -2.26282479       0.00000000
Si       0.96073533      -3.54150206       0.22849146       0.00000000
Si      -3.18518370       1.95069492       0.72150838       0.00000000
Si      -0.18033030       1.63549971       3.43303241       0.00000000
Si       3.86776728       0.18314847      -0.04096969       0.00000000
