10
Lattice="16.28999089631971 0.0 0.0 0.0 16.28999089631971 0.0 0.0 0.0 34.51530692428229" Properties=species:S:1:pos:R:3:initial_magmoms:R:1 pbc="T T T"
Si      -1.46676789      -1.83724159       0.26231648       0.00000000
Si      -0.06084315       0.72453033      -2.25678460       0.00000000
Si      -0.93876012       1.60076943       1.49368526       0.00000000
Si       2.24642358      -0.34992549       0.77217688       0.00000000
Si      -0.99057861       3.25045773      -0.15904662       0.00000000
Si       1.78908183      -2.33446403       1.87953209       0.00000000
Si      -1.81789884       2.30705496      -2.12203677       0.00000000
Si      -1.46662128      -2.79442637      -1.83828627       0.00000000
Si      -0.43233660      -3.11828786       1.89399401       0.00000000
Si      -1.46399859      -0.90265171      -3.27243259       0.00000000
