10
Lattice="16.28999089631971 0.0 0.0 0.0 16.28999089631971 0.0 0.0 0.0 34.51530692428229" Properties=species:S:1:pos:R:3:initial_magmoms:R:1 pbc="T T T"
Si      -1.35523026       1.35689184      -1.35969676       0.00000000
Si       1.35863487      -1.35656604      -1.35876485       0.00000000
Si      -1.36164852      -1.35501849       1.37798988       0.00000000
Si       1.36016613       1.36065483       1.37937050       0.00000000
Si      -2.70907587      -2.71492398       0.00352056       0.00000000
Si      -2.70961344       2.71559187       0.00238156       0.00000000
Si      -2.71241532       0.00004887      -2.71625263       0.00000000
Si       0.00188964      -2.71466334      -2.71583844       0.00000000
Si       0.00224802       2.71489140      -2.71618360       0.00000000
Si       2.71712313       2.71586880       0.00224350       0.00000000
