10
Lattice="16.28999089631971 0.0 0.0 0.0 16.28999089631971 0.0 0.0 0.0 34.51530692428229" Properties=species:S:1:pos:R:3:initial_magmoms:R:1 pbc="T T T"
Si       1.35695700       1.35521397      -1.37712700       0.00000000
Si      -1.36016613      -1.36065483      -1.37937050       0.00000000
Si       1.27599570      -1.36487394       1.50455758       0.00000000
Si      -1.39804038       1.29696093       1.47691081       0.00000000
Si      -0.52318593      -2.21187249       2.89266046       0.00000000
Si       2.72057661       2.70011637       0.00034515       0.00000000
Si      -2.49100164      -0.41769189       2.88385905       0.00000000
Si       2.71339272      -2.71305063       0.00783498       0.00000000
Si      -2.72626182       2.70541062       0.00396926       0.00000000
Si      -2.72181465      -2.71567332      -0.00138061       0.00000000
