10
Lattice="16.28999089631971 0.0 0.0 0.0 16.28999089631971 0.0 0.0 0.0 34.51530692428229" Properties=species:S:1:pos:R:3:initial_magmoms:R:1 pbc="T T T"
Si      -0.40791789      -1.91195730       1.30143489       0.00000000
Si       1.73193651       1.61077149       0.07907461       0.00000000
Si       1.23281091      -0.23312619      -2.02584256       0.00000000
Si      -2.10028599       1.13516865       1.61866525       0.00000000
Si       0.41940234      -0.96855453       3.26442504       0.00000000
Si       3.49892910       0.23814351       0.85843068       0.00000000
Si      -0.46053459      -1.27723374      -3.43810616       0.00000000
Si      -1.57056777       2.86673049      -1.98649508       0.00000000
Si      -3.74661855      -0.39273561       0.88600842       0.00000000
Si       1.34913780      -3.49448193       1.16668706       0.00000000
