10
Lattice="16.28999089631971 0.0 0.0 0.0 16.28999089631971 0.0 0.0 0.0 34.51530692428229" Properties=species:S:1:pos:R:3:initial_magmoms:R:1 pbc="T T T"
Si       1.97117145      -1.12014927       0.72164644       0.00000000
Si      -1.03368195      -0.80495406      -1.98987759       0.00000000
Si       0.58648887       2.30672916      -0.29959303       0.00000000
Si      -1.57200129       0.32581629       1.78254402       0.00000000
Si       3.13584129      -1.11242781      -1.29018289       0.00000000
Si       2.80188000       0.41374971       2.23455673       0.00000000
Si      -3.29470137      -0.74916081      -1.33605376       0.00000000
Si       2.34114993       2.48754816       1.24096404       0.00000000
Si      -1.24607097       3.38737518       0.74387431       0.00000000
Si      -3.09620772       1.98860175       0.89846846       0.00000000
