10
Lattice="16.28999089631971 0.0 0.0 0.0 16.28999089631971 0.0 0.0 0.0 34.51530692428229" Properties=species:S:1:pos:R:3:initial_magmoms:R:1 pbc="T T T"
Si      -1.35663120      -1.35847197       1.35707360       0.00000000
Si       1.35865116       1.35700587       1.35745326       0.00000000
Si      -1.35746199       1.35985662      -1.35997288       0.00000000
Si       1.35998694      -1.35936792      -1.36290669       0.00000000
Si      -0.00158013       2.70283680      -2.71581428       0.00000000
Si      -2.71528236       2.71342530       0.00100094       0.00000000
Si      -2.71420722      -0.00076563       2.71504459       0.00000000
Si       0.00086337       2.71445157       2.71480298       0.00000000
Si       0.00105885      -2.71575477       2.71476847       0.00000000
Si       2.71572219      -0.00091224       2.71483750       0.00000000
