10
Lattice="16.28999089631971 0.0 0.0 0.0 16.28999089631971 0.0 0.0 0.0 34.51530692428229" Properties=species:S:1:pos:R:3:initial_magmoms:R:1 pbc="T T T"
Si      -1.34351775      -1.35047358      -1.38095820       0.00000000
Si       1.36953288       1.36542780      -1.38320170       0.00000000
Si      -1.32983415       1.35632169       1.48940536       0.00000000
Si       1.32822144      -1.40844969       1.47294155       0.00000000
Si       0.63951282       2.18880585       2.58792464       0.00000000
Si       2.42880642       0.21201435       2.85151819       0.00000000
Si      -2.71774215      -2.70177795       0.01170070       0.00000000
Si      -2.70461241       2.71971324       0.00200189       0.00000000
Si       2.72626182      -2.70541062      -0.00396926       0.00000000
Si       2.73127914       2.71003698      -0.03268601       0.00000000
