10
Lattice="16.28999089631971 0.0 0.0 0.0 16.28999089631971 0.0 0.0 0.0 34.51530692428229" Properties=species:S:1:pos:R:3:initial_magmoms:R:1 pbc="T T T"
Si       0.75921174       1.84904532      -1.25777300       0.00000000
Si      -0.32791770       1.13940405       2.07865101       0.00000000
Si      -1.96934697      -0.83248416      -1.09851929       0.00000000
Si       1.78929360      -1.97679150       0.26359355       0.00000000
Si       2.09176632       0.52123113      -2.62061066       0.00000000
Si      -0.63951282      -2.18880585      -2.58792464       0.00000000
Si      -0.18314847      -0.78288111       3.55442281       0.00000000
Si       3.35360601      -0.91597041      -1.20213430       0.00000000
Si       2.65412970       2.58310530       0.04114227       0.00000000
Si      -2.75343354       1.54952109       2.07706330       0.00000000
