10
Lattice="16.28999089631971 0.0 0.0 0.0 16.28999089631971 0.0 0.0 0.0 34.51530692428229" Properties=species:S:1:pos:R:3:initial_magmoms:R:1 pbc="T T T"
Si      -1.34610786      -1.35524655      -1.36417340       0.00000000
Si      -1.35668007       1.35694071       1.36073222       0.00000000
Si       1.35832536      -1.35795069       1.35948967       0.00000000
Si       1.35773892       1.34793234      -1.37540814       0.00000000
Si      -2.71232410      -2.71199178      -0.00065579       0.00000000
Si       2.71482624      -2.71109583      -0.00106998       0.00000000
Si      -2.71181422       2.71476108      -0.00113901       0.00000000
Si      -2.71335688      -0.00030951       2.71680487       0.00000000
Si       0.00099369      -2.71474479       2.71694293       0.00000000
Si       0.00153126       2.71510317       2.71673584       0.00000000
