10
Lattice="16.28999089631971 0.0 0.0 0.0 16.28999089631971 0.0 0.0 0.0 34.51530692428229" Properties=species:S:1:pos:R:3:initial_magmoms:R:1 pbc="T T T"
Si       0.20808846      -1.82107539      -1.47204415       0.00000000
Si       1.72442682       1.58203593      -0.36434378       0.00000000
Si      -2.16362151       0.94428243      -0.21565176       0.00000000
Si      -0.30560040      -1.16537031       2.09318196       0.00000000
Si      -1.97758971      -2.62736523      -1.24983448       0.00000000
Si       2.10124710      -2.94622569      -0.61720306       0.00000000
Si      -3.48195492      -0.93190203      -0.75795656       0.00000000
Si      -2.69303022       1.75982499       1.87915242       0.00000000
Si       3.49001847      -1.28748015       0.30639255       0.00000000
Si      -2.13816024      -0.08472429       3.13664930       0.00000000
