10
Lattice="16.28999089631971 0.0 0.0 0.0 16.28999089631971 0.0 0.0 0.0 34.51530692428229" Properties=species:S:1:pos:R:3:initial_magmoms:R:1 pbc="T T T"
Si      -0.50844348      -2.23702425       0.01066524       0.00000000
Si       2.15130627       0.16514802       0.91296489       0.00000000
Si      -1.63936044       1.08721089       1.29249542       0.00000000
Si      -0.69041907       0.98450244      -2.09366517       0.00000000
Si      -2.79705816      -1.86621498      -0.15252323       0.00000000
Si      -0.06501339       3.21545052      -1.50545498       0.00000000
Si      -1.24325280       3.28658895       0.51969727       0.00000000
Si      -3.56581584       0.34450092       0.15442157       0.00000000
Si       2.66551641       2.46203802       0.94195777       0.00000000
Si       2.26251810       2.78905977      -1.35993837       0.00000000
