10
Lattice="16.28999089631971 0.0 0.0 0.0 16.28999089631971 0.0 0.0 0.0 34.51530692428229" Properties=species:S:1:pos:R:3:initial_magmoms:R:1 pbc="T T T"
Si      -1.35708620       1.35800004      -1.35555492       0.00000000
Si      -1.35690701      -1.35747684       1.35745326       0.00000000
Si       1.35816588       1.35701287       1.35769487       0.00000000
Si       1.35777655      -1.35482157      -1.36118092       0.00000000
Si      -0.00159056       2.69564525      -2.71649423       0.00000000
Si       2.71499744       2.71364570      -0.00069031       0.00000000
Si      -2.71399433      -0.00035243       2.71466492       0.00000000
Si      -2.71445045       2.71455794       0.00027612       0.00000000
Si       0.00065586       2.71457423       2.71459589       0.00000000
Si      -2.71461335      -2.71485738       0.00000000       0.00000000
