10
Lattice="16.28999089631971 0.0 0.0 0.0 16.28999089631971 0.0 0.0 0.0 34.51530692428229" Properties=species:S:1:pos:R:3:initial_magmoms:R:1 pbc="T T T"
Si       1.38223908      -1.26198630       1.50276279       0.00000000
Si       0.84181833       2.04978929      -1.00756070       0.00000000
Si      -1.35190710       1.43357133       1.49221836       0.00000000
Si      -0.65399463      -1.90780335      -1.46980552       0.00000000
Si      -2.57970069      -2.66106924       0.03484322       0.00000000
Si       2.59893918      -2.74592385       0.07211287       0.00000000
Si       0.02173086      -2.61480564       2.88045239       0.00000000
Si      -1.00536993       3.55269329      -1.26443933       0.00000000
Si      -2.83833702       2.70071488       0.03482942       0.00000000
Si      -2.69206911       0.09873369       2.88266137       0.00000000
