10
Lattice="16.28999089631971 0.0 0.0 0.0 16.28999089631971 0.0 0.0 0.0 34.51530692428229" Properties=species:S:1:pos:R:3:initial_magmoms:R:1 pbc="T T T"
Si       1.33255458      -1.32781419      -1.36283766       0.00000000
Si      -0.75921174      -1.84904532       1.25777300       0.00000000
Si      -1.39305564       1.40642973      -1.33660601       0.00000000
Si       1.89491796       0.73405998       1.29891527       0.00000000
Si      -1.08712944      -0.70964127       3.33642401       0.00000000
Si       0.92554893       0.78268563       3.46585648       0.00000000
Si       2.69478954       2.65287537       0.08332000       0.00000000
Si       2.59439427      -2.76501573       0.05563871       0.00000000
Si      -0.02919168      -2.67242337      -2.71335334       0.00000000
Si       2.68682373       0.03844440      -2.71452686       0.00000000
