10
Lattice="16.28999089631971 0.0 0.0 0.0 16.28999089631971 0.0 0.0 0.0 34.51530692428229" Properties=species:S:1:pos:R:3:initial_magmoms:R:1 pbc="T T T"
Si       0.01573614       2.25349344       0.44117490       0.00000000
Si      -0.16241130      -1.27250964       1.97206768       0.00000000
Si       2.26647657      -0.42142230      -0.47489637       0.00000000
Si      -1.98369846      -0.41733351      -1.24258626       0.00000000
Si      -1.43516529      -2.51551809      -2.14840648       0.00000000
Si      -3.59776053      -0.65933775       0.49398335       0.00000000
Si       2.23715457       3.03731727       0.42671298       0.00000000
Si       1.98842256      -1.44888147       2.90491340       0.00000000
Si      -1.25794638      -3.28056165       1.51712116       0.00000000
Si      -1.01869515       3.53453971      -1.19050263       0.00000000
