10
Lattice="16.28999089631971 0.0 0.0 0.0 16.28999089631971 0.0 0.0 0.0 34.51530692428229" Properties=species:S:1:pos:R:3:initial_magmoms:R:1 pbc="T T T"
Si       1.35549564       1.33764520      -1.36093931       0.00000000
Si      -1.35736425       1.35655789       1.35583104       0.00000000
Si       1.35708620      -1.35800004       1.35555492       0.00000000
Si      -1.34177472      -1.36814727      -1.37930147       0.00000000
Si      -2.66893731       0.09620874      -2.72950651       0.00000000
Si       2.67877225      -0.04351059      -2.74600139       0.00000000
Si      -0.00003258       2.71459004       2.71290464       0.00000000
Si      -2.71505430      -0.00079006       2.71245594       0.00000000
Si       2.71486275      -2.71282161      -0.00562600       0.00000000
Si       0.00017919      -2.71547688       2.71300819       0.00000000
