10
Lattice="16.28999089631971 0.0 0.0 0.0 16.28999089631971 0.0 0.0 0.0 34.51530692428229" Properties=species:S:1:pos:R:3:initial_magmoms:R:1 pbc="T T T"
Si       0.87114915      -2.14796128       0.09156916       0.00000000
Si      -1.92945276      -0.17804970      -1.35603814       0.00000000
Si      -0.54648063       1.08628236       2.04717303       0.00000000
Si       1.73600316       1.02451068      -1.27834414       0.00000000
Si       0.69108111      -2.50518113      -2.28173919       0.00000000
Si       2.99458160      -1.42930089       1.01060875       0.00000000
Si       3.40686521       0.86019345       0.39468276       0.00000000
Si      -2.88342774       1.46007270       1.46217276       0.00000000
Si      -2.06356833       2.02763259      -2.22185509       0.00000000
Si      -0.73619397      -3.36363155       1.28341789       0.00000000
