10
Lattice="16.28999089631971 0.0 0.0 0.0 16.28999089631971 0.0 0.0 0.0 34.51530692428229" Properties=species:S:1:pos:R:3:initial_magmoms:R:1 pbc="T T T"
Si       1.35667681       1.35725022      -1.35607265       0.00000000
Si      -1.35843026      -1.35666378      -1.35724617       0.00000000
Si       1.35737728      -1.35760860       1.35759133       0.00000000
Si      -1.35793693       1.35806472       1.35721166       0.00000000
Si      -2.71418508       0.00215028       2.71431977       0.00000000
Si       2.71435057      -2.71443528       0.00013806       0.00000000
Si       0.00103279      -2.71168227      -2.71746066       0.00000000
Si      -2.71534167      -2.71427238      -0.00003452       0.00000000
Si       2.71426912      -0.00096111       2.71570038       0.00000000
Si       0.00001955      -2.71619460       2.71383655       0.00000000
