10
Lattice="16.28999089631971 0.0 0.0 0.0 16.28999089631971 0.0 0.0 0.0 34.51530692428229" Properties=species:S:1:pos:R:3:initial_magmoms:R:1 pbc="T T T"
Si       1.99845720       0.42427305      -1.08032971       0.00000000
Si      -0.71374635       1.35452979       1.73753604       0.00000000
Si      -1.75466106      -0.18081900      -1.54055707       0.00000000
Si       0.46073007      -2.07379845       0.99359270       0.00000000
Si      -2.34114993      -2.48754816      -1.24096404       0.00000000
Si      -0.36997848      -3.60769743      -0.51931760       0.00000000
Si      -0.34153614       0.08138484       3.66797823       0.00000000
Si      -0.80635500      -2.10251772       2.97021640       0.00000000
Si      -3.58722090       0.89982702      -0.49708973       0.00000000
Si      -3.00236103       1.72533906       1.57434757       0.00000000
