10
Lattice="16.28999089631971 0.0 0.0 0.0 16.28999089631971 0.0 0.0 0.0 34.51530692428229" Properties=species:S:1:pos:R:3:initial_magmoms:R:1 pbc="T T T"
Si      -0.83070855      -1.53389898      -1.51291029       0.00000000
Si      -0.46073007       2.07379845      -0.99359270       0.00000000
Si      -1.26708507      -0.02871927       1.97662370       0.00000000
Si       2.33821773      -0.24692382       0.45736259       0.00000000
Si      -0.80226621       2.15518329       2.67438554       0.00000000
Si       1.53772713       2.49807150      -2.07392241       0.00000000
Si      -0.36214299      -3.56188995      -0.31605684       0.00000000
Si      -2.80188000      -0.41374971      -2.23455673       0.00000000
Si      -1.17447642       3.42832824       0.74394334       0.00000000
Si       3.32337177       1.32427926      -0.96970809       0.00000000
