10
Lattice="16.28999089631971 0.0 0.0 0.0 16.28999089631971 0.0 0.0 0.0 34.51530692428229" Properties=species:S:1:pos:R:3:initial_magmoms:R:1 pbc="T T T"
Si       1.35380646      -1.35793440       1.36173317       0.00000000
Si      -1.36011726       1.35879777       1.36204380       0.00000000
Si       1.36181207       1.34671059      -1.38613550       0.00000000
Si      -1.35537687      -1.36254447      -1.39031876       0.00000000
Si       2.71426165      -2.71440270       0.00148416       0.00000000
Si       2.71227264       2.71883358       0.00086288       0.00000000
Si       2.71280695       0.00115659       2.71911740       0.00000000
Si      -2.71867068       2.71339272       0.00217447       0.00000000
Si      -2.71881729      -2.71407690       0.00131158       0.00000000
Si      -0.00272043      -2.71414206       2.71904837       0.00000000
