10
Lattice="16.28999089631971 0.0 0.0 0.0 16.28999089631971 0.0 0.0 0.0 34.51530692428229" Properties=species:S:1:pos:R:3:initial_magmoms:R:1 pbc="T T T"
Si      -1.35718506      -1.35777150      -1.35710811       0.00000000
Si       1.35765747       1.35755973      -1.35728069       0.00000000
Si      -1.35599589       1.35883035       1.35921355       0.00000000
Si       1.35769005      -1.35679410       1.36131898       0.00000000
Si       0.00575037       2.70343953       2.70972923       0.00000000
Si      -2.71389771       2.71303434       0.00041418       0.00000000
Si       2.71396287       2.71450044      -0.00096643       0.00000000
Si      -2.71425609       0.00014661      -2.71449235       0.00000000
Si       0.00008145       2.71490769      -2.71425074       0.00000000
Si       2.71629234      -2.71332756      -0.00020709       0.00000000
