10
Lattice="16.28999089631971 0.0 0.0 0.0 16.28999089631971 0.0 0.0 0.0 34.51530692428229" Properties=species:S:1:pos:R:3:initial_magmoms:R:1 pbc="T T T"
Si       1.34539110       1.15825158      -1.74050435       0.00000000
Si      -1.19417103      -1.41955947      -1.78696198       0.00000000
Si       0.71200332      -0.80770707       2.41538253       0.00000000
Si      -1.27762470       2.25240201       1.48505643       0.00000000
Si       2.88805410       2.45175903      -0.45712098       0.00000000
Si      -2.85390374       2.67022422      -0.33876793       0.00000000
Si       2.35833588       0.72019719       3.14803936       0.00000000
Si      -1.73382615      -3.54338451      -0.99493879       0.00000000
Si       0.05090625       2.46573585      -3.38826603       0.00000000
Si      -2.67536046      -0.23374521      -3.37231995       0.00000000
