10
Lattice="16.28999089631971 0.0 0.0 0.0 16.28999089631971 0.0 0.0 0.0 34.51530692428229" Properties=species:S:1:pos:R:3:initial_magmoms:R:1 pbc="T T T"
Si       1.09863018       1.64652804       1.27689449       0.00000000
Si      -1.26183969       1.43720154      -1.41847636       0.00000000
Si       1.45371960      -1.27812969      -1.38941446       0.00000000
Si      -1.56431241      -1.06082109       1.46572784       0.00000000
Si       0.47829069      -1.90584855       2.79197925       0.00000000
Si       2.14746183       0.04996143       2.88330681       0.00000000
Si      -3.35360601       0.91597041       1.20213430       0.00000000
Si      -0.69947631       3.49907571       1.24327657       0.00000000
Si      -2.66489739      -2.68128513       0.08715120       0.00000000
Si      -2.59439427       2.76501573      -0.05563871       0.00000000
