10
Lattice="16.28999089631971 0.0 0.0 0.0 16.28999089631971 0.0 0.0 0.0 34.51530692428229" Properties=species:S:1:pos:R:3:initial_magmoms:R:1 pbc="T T T"
Si      -1.10600955      -2.03976864      -0.18086031       0.00000000
Si       0.57604698       0.15149700       2.25989098       0.00000000
Si      -0.65541186       2.20423248      -0.42208792       0.00000000
Si       1.66721864      -0.99235422      -1.40636148       0.00000000
Si       0.67963509      -3.21356088       0.92335401       0.00000000
Si      -2.71725345       1.66630410      -1.34288780       0.00000000
Si       1.99143525      -1.77165153       2.29720205       0.00000000
Si       3.58354655      -0.23092704      -0.32651499       0.00000000
Si       1.31503861      -0.09168012      -3.53050369       0.00000000
Si      -1.06350894      -2.76697053      -2.42787708       0.00000000
