10
Lattice="16.28999089631971 0.0 0.0 0.0 16.28999089631971 0.0 0.0 0.0 34.51530692428229" Properties=species:S:1:pos:R:3:initial_magmoms:R:1 pbc="T T T"
Si       1.35758658       1.35609363       1.35662490       0.00000000
Si       1.35751002      -1.35756136      -1.35690102       0.00000000
Si      -1.35697643      -1.35933045       1.35617620       0.00000000
Si      -1.35777464       1.35801585      -1.35724617       0.00000000
Si      -0.00106231      -2.71419812       2.71411268       0.00000000
Si       2.71426013      -0.00156384       2.71473395       0.00000000
Si       2.71474883      -2.71427243       0.00006903       0.00000000
Si      -0.00065586      -2.71457423      -2.71459589       0.00000000
Si      -2.71510631      -0.00001629      -2.71431977       0.00000000
Si      -2.71465019      -2.71492666       0.00006903       0.00000000
