10
Lattice="16.28999089631971 0.0 0.0 0.0 16.28999089631971 0.0 0.0 0.0 34.51530692428229" Properties=species:S:1:pos:R:3:initial_magmoms:R:1 pbc="T T T"
Si       1.34930070      -1.25850024      -1.44305127       0.00000000
Si       1.67474232       1.14225058       1.28604105       0.00000000
Si      -0.79987158      -1.91881539       1.21559527       0.00000000
Si      -1.37187864       1.45833849      -1.40090806       0.00000000
Si      -0.11741832       1.56224262       3.02178229       0.00000000
Si       2.64271041      -2.54743020       0.05608741       0.00000000
Si      -2.69478954      -2.65287537      -0.08332000       0.00000000
Si      -0.00796581      -2.61443097      -2.79784686       0.00000000
Si       3.45901275      -0.83722455       1.50369470       0.00000000
Si       2.70386275       0.10389762      -2.79908941       0.00000000
