10
Lattice="16.28999089631971 0.0 0.0 0.0 16.28999089631971 0.0 0.0 0.0 34.51530692428229" Properties=species:S:1:pos:R:3:initial_magmoms:R:1 pbc="T T T"
Si       2.08456288       1.11741255       0.10830909       0.00000000
Si       0.40506714      -2.35372581       0.22038036       0.00000000
Si      -0.69123683       0.96958080       2.09780701       0.00000000
Si      -1.87334415       0.26155224      -1.87100680       0.00000000
Si       1.26867823       3.30750531      -0.25765691       0.00000000
Si      -3.39450435      -1.35060390      -0.72313060       0.00000000
Si       2.07592918      -2.51804304       1.89340725       0.00000000
Si      -0.39325689      -0.46584513       3.83182249       0.00000000
Si      -2.96809731       1.37888334       2.16469771       0.00000000
Si      -1.33093602      -3.37823649       1.49872449       0.00000000
