10
Lattice="16.28999089631971 0.0 0.0 0.0 16.28999089631971 0.0 0.0 0.0 34.51530692428229" Properties=species:S:1:pos:R:3:initial_magmoms:R:1 pbc="T T T"
Si      -0.58943736       2.06382897       0.87731056       0.00000000
Si       2.35092393      -0.47195388       0.04024487       0.00000000
Si      -1.48636476      -1.35601218       1.31851998       0.00000000
Si      -1.60704108       1.49840307      -1.31382589       0.00000000
Si       2.20926609      -1.99933686      -1.84073686       0.00000000
Si      -1.70048052       0.06566499       3.19729273       0.00000000
Si       1.16043444      -0.40277025      -3.44714917       0.00000000
Si      -0.31172544       1.96744104       3.22003833       0.00000000
Si       0.96125661       3.65830787       0.18765983       0.00000000
Si      -0.63767205       1.44977742      -3.48076710       0.00000000
