10
Lattice="16.28999089631971 0.0 0.0 0.0 16.28999089631971 0.0 0.0 0.0 34.51530692428229" Properties=species:S:1:pos:R:3:initial_magmoms:R:1 pbc="T T T"
Si      -0.81588465       2.19009276      -0.36596600       0.00000000
Si      -2.08456288      -1.11741255      -0.10830909       0.00000000
Si       0.83028501       0.04035033       2.28453493       0.00000000
Si       1.60370163      -0.50259537      -1.87825502       0.00000000
Si      -2.77579971      -0.14783175       1.98949792       0.00000000
Si       3.25003419       1.02530889      -1.14559819       0.00000000
Si       0.83911419       3.55144806       0.57416245       0.00000000
Si       1.23883821       2.42745435       2.61933359       0.00000000
Si      -0.38592639       2.55751371      -2.80858112       0.00000000
Si      -1.67949574      -3.47113836       0.11207126       0.00000000
