10
Lattice="16.28999089631971 0.0 0.0 0.0 16.28999089631971 0.0 0.0 0.0 34.51530692428229" Properties=species:S:1:pos:R:3:initial_magmoms:R:1 pbc="T T T"
Si      -0.29797994       1.43542593      -1.73401547       0.00000000
Si       2.29711480      -0.27139140      -0.30625449       0.00000000
Si      -0.83169639       1.39813812       1.68410631       0.00000000
Si      -1.48415976      -1.82610900      -0.28592496       0.00000000
Si      -0.88872768      -2.21236119       2.04834655       0.00000000
Si      -2.57484042       1.84472847      -1.66712477       0.00000000
Si      -1.81685043      -0.17306496       3.11117699       0.00000000
Si       0.15588715       3.61934478      -0.64560918       0.00000000
Si      -2.61734103       2.57193036       0.57989200       0.00000000
Si       2.46918607      -2.05219791      -1.93841524       0.00000000
