10
Lattice="16.28999089631971 0.0 0.0 0.0 16.28999089631971 0.0 0.0 0.0 34.51530692428229" Properties=species:S:1:pos:R:3:initial_magmoms:R:1 pbc="T T T"
Si      -0.00720181       1.34961021      -1.90352024       0.00000000
Si       1.78447502      -1.49361381       0.18386314       0.00000000
Si       0.58359251       1.21288824       1.98047945       0.00000000
Si      -1.79579724      -1.61500689      -0.13188306       0.00000000
Si      -1.12241358      -2.40117858       1.94656607       0.00000000
Si      -0.17170963      -0.66552795       3.25035456       0.00000000
Si      -1.07898933       3.00799737       1.60986385       0.00000000
Si       3.08386316      -1.02666096      -1.61217637       0.00000000
Si      -1.47135711       3.14183601      -1.13586487       0.00000000
Si      -0.18679580      -0.17712117      -3.72503207       0.00000000
