10
Lattice="16.28999089631971 0.0 0.0 0.0 16.28999089631971 0.0 0.0 0.0 34.51530692428229" Properties=species:S:1:pos:R:3:initial_magmoms:R:1 pbc="T T T"
Si      -1.35417351       1.35052245      -1.36166413       0.00000000
Si       1.36235081      -1.36340784      -1.35952418       0.00000000
Si       1.35222332       1.36018242       1.37467641       0.00000000
Si      -1.34682672      -1.37586969       1.37809343       0.00000000
Si       2.63655787      -0.10278990       2.69575052       0.00000000
Si      -2.70811686       2.70572013      -0.00265768       0.00000000
Si       0.00437599       2.70865233      -2.71763324       0.00000000
Si       2.71931107       2.70878265       0.00124255       0.00000000
Si      -2.71047891      -0.00641826      -2.71797839       0.00000000
Si      -2.71044633      -2.72077209       0.00062128       0.00000000
