10
Lattice="16.28999089631971 0.0 0.0 0.0 16.28999089631971 0.0 0.0 0.0 34.51530692428229" Properties=species:S:1:pos:R:3:initial_magmoms:R:1 pbc="T T T"
Si      -1.57627904       0.41782221      -1.82382435       0.00000000
Si       1.07966862       2.20416732      -0.27035855       0.00000000
Si      -0.42995826      -0.36742095       2.44261512       0.00000000
Si       1.27762470      -2.25240201      -1.48505643       0.00000000
Si       1.22504058       0.99393435       3.38274358       0.00000000
Si       1.98962802      -3.06010908       0.93032610       0.00000000
Si      -3.41561294       1.54539972      -0.59231751       0.00000000
Si       3.16386009       0.74155338       1.99595228       0.00000000
Si       0.38592639      -2.55751371       2.80858112       0.00000000
Si       3.40335567       1.74373047      -0.20550425       0.00000000
