10
Lattice="16.28999089631971 0.0 0.0 0.0 16.28999089631971 0.0 0.0 0.0 34.51530692428229" Properties=species:S:1:pos:R:3:initial_magmoms:R:1 pbc="T T T"
Si      -1.65499884      -1.36135530      -0.94012846       0.00000000
Si      -1.17833715       2.04815799      -0.06143728       0.00000000
Si       0.39972402      -1.12399371       2.04517114       0.00000000
Si       1.93881951      -0.25238097      -1.38679129       0.00000000
Si      -3.51322683      -0.61468686       0.37959956       0.00000000
Si       1.87535367       2.37855177       2.03184822       0.00000000
Si      -0.83911419      -3.55144806      -0.57416245       0.00000000
Si       1.94235444       0.25974405       3.15967102       0.00000000
Si      -1.22504058      -0.99393435      -3.38274358       0.00000000
Si      -0.22387347       3.35069010       1.64075506       0.00000000
