10
Lattice="16.28999089631971 0.0 0.0 0.0 16.28999089631971 0.0 0.0 0.0 34.51530692428229" Properties=species:S:1:pos:R:3:initial_magmoms:R:1 pbc="T T T"
Si       0.00720181      -1.34961021       1.90352024       0.00000000
Si       1.98005439       1.14750018      -0.48062592       0.00000000
Si      -0.17959399      -1.52673138      -1.82151183       0.00000000
Si      -1.46415530       1.79222580       0.76765537       0.00000000
Si       1.80146712       1.54344492      -2.78535231       0.00000000
Si      -3.41476097       1.19426877      -0.62838603       0.00000000
Si       1.68000888      -2.96971587      -1.54583792       0.00000000
Si       3.80937252      -0.21822084       0.01256358       0.00000000
Si      -0.38788119       3.84341373      -0.00369314       0.00000000
Si      -1.78859543      -2.96461710       1.77163718       0.00000000
