10
Lattice="16.28999089631971 0.0 0.0 0.0 16.28999089631971 0.0 0.0 0.0 34.51530692428229" Properties=species:S:1:pos:R:3:initial_magmoms:R:1 pbc="T T T"
Si      -1.34846991      -1.35593073      -1.37239840       0.00000000
Si       1.36708938       1.36177884      -1.37726506       0.00000000
Si       1.28186010      -1.39404933       1.43124703       0.00000000
Si      -1.51925427       1.22842890       1.47780821       0.00000000
Si      -0.54305973      -2.43312327       2.52269068       0.00000000
Si      -2.69992741       2.70680897      -0.01066524       0.00000000
Si       2.72098386       2.69167068       0.00320993       0.00000000
Si      -2.71555766      -2.70453096       0.00103546       0.00000000
Si       2.72393235      -2.71557558       0.01007848       0.00000000
Si      -2.70629354       0.00158013      -2.73395899       0.00000000
