10
Lattice="16.28999089631971 0.0 0.0 0.0 16.28999089631971 0.0 0.0 0.0 34.51530692428229" Properties=species:S:1:pos:R:3:initial_magmoms:R:1 pbc="T T T"
Si       1.20583467       1.55204834       1.36404569       0.00000000
Si      -1.18067314       1.47838007      -1.48847344       0.00000000
Si      -1.78966501      -0.81021573       1.44743472       0.00000000
Si       1.51925427      -1.22842890      -1.47780821       0.00000000
Si      -2.60596736      -2.52042138      -0.00017258       0.00000000
Si      -0.24219972       3.60788381       0.91168783       0.00000000
Si      -2.34610372       2.96343512      -0.08887696       0.00000000
Si      -2.54481501       0.13090644      -2.85534939       0.00000000
Si       2.80111437      -2.62247823      -0.04656118       0.00000000
Si       0.17078436      -2.58435963      -2.85020661       0.00000000
