10
Lattice="16.28999089631971 0.0 0.0 0.0 16.28999089631971 0.0 0.0 0.0 34.395419527814205" Properties=species:S:1:pos:R:3:initial_magmoms:R:1 pbc="T T T"
Si       1.32418119      -1.33915855      -1.57967932       0.00000000
Si       1.28757594       1.49615505       1.47043940       0.00000000
Si      -0.80858121      -1.94167840       1.29505706       0.00000000
Si      -1.39041114       1.35698958      -1.55838854       0.00000000
Si       2.68382279      -2.66439289      -0.16712744       0.00000000
Si       2.66982968       2.73375522      -0.05386326       0.00000000
Si       0.98575970      -3.50799353       1.18550759       0.00000000
Si      -2.69349711      -2.77342856      -0.09290208       0.00000000
Si       2.64591596       0.09560601       2.86943948       0.00000000
Si      -2.68645983       2.83657770      -0.05730280       0.00000000
