10
Lattice="16.28999089631971 0.0 0.0 0.0 16.28999089631971 0.0 0.0 0.0 34.395419527814205" Properties=species:S:1:pos:R:3:initial_magmoms:R:1 pbc="T T T"
Si      -1.35557235       1.18712723      -1.43329233       0.00000000
Si      -1.25340147      -1.28157570       1.50865273       0.00000000
Si       1.37468052      -1.52216271      -1.36890407       0.00000000
Si       0.79426782       1.96748828       1.26485786       0.00000000
Si       0.54362988      -1.18930914       3.23255212       0.00000000
Si      -2.68227882       2.53087793      -0.07577315       0.00000000
Si       0.56638701       1.22103976       3.48577134       0.00000000
Si       0.00992061       2.55075173      -2.76866084       0.00000000
Si      -2.61834057      -2.81202120       0.09589448       0.00000000
Si       2.72010420       2.73067478       0.05620215       0.00000000
