10
Lattice="16.28999089631971 0.0 0.0 0.0 16.28999089631971 0.0 0.0 0.0 34.395419527814205" Properties=species:S:1:pos:R:3:initial_magmoms:R:1 pbc="T T T"
Si       1.32670647      -1.34375070      -1.35751918       0.00000000
Si      -1.39142664       1.38463371      -1.31455927       0.00000000
Si       1.61881875       1.07351100       1.39772744       0.00000000
Si      -1.45588617      -1.20991369       1.54903298       0.00000000
Si       0.99751815      -0.47524446       3.51858459       0.00000000
Si       2.68227882      -2.53087793       0.07577315       0.00000000
Si       3.47654664      -0.56338965       1.34063102       0.00000000
Si       2.69219943       0.01987380      -2.69288769       0.00000000
Si      -2.73478149      -2.64909658       0.09998754       0.00000000
Si      -0.02539611      -2.69484560      -2.69360999       0.00000000
