10
Lattice="16.28999089631971 0.0 0.0 0.0 16.28999089631971 0.0 0.0 0.0 34.395419527814205" Properties=species:S:1:pos:R:3:initial_magmoms:R:1 pbc="T T T"
Si       1.86937524      -1.10247462       0.89854644       0.00000000
Si      -1.91357001      -1.40986692       0.26917870       0.00000000
Si       0.20777895      -0.38239146      -2.35625953       0.00000000
Si      -0.41964669       1.84741632       1.58170865       0.00000000
Si      -2.68309332       1.85186349       0.66121791       0.00000000
Si      -1.32067917      -1.94054625       2.51117659       0.00000000
Si       2.45812842      -0.94582998      -2.41026037       0.00000000
Si      -2.08153620       2.57175117      -1.59453814       0.00000000
Si       1.02117123      -2.22795561       2.76023396       0.00000000
Si       2.57958666      -2.59779399      -0.72753232       0.00000000
