10
Lattice="16.28999089631971 0.0 0.0 0.0 16.28999089631971 0.0 0.0 0.0 34.395419527814205" Properties=species:S:1:pos:R:3:initial_magmoms:R:1 pbc="T T T"
Si      -1.35728280      -1.35788553      -1.35679687       0.00000000
Si       1.35801585       1.35759231      -1.35662490       0.00000000
Si      -1.35610992       1.35609363       1.36099312       0.00000000
Si       1.35821133      -1.35682668       1.35879181       0.00000000
Si       2.72127708       0.00068418       2.69199341       0.00000000
Si      -0.00728163      -2.72045118       2.69416032       0.00000000
Si      -2.71476108      -0.00030951      -2.71393770       0.00000000
Si      -2.71375110       2.71498914       0.00103186       0.00000000
Si      -2.71425609      -2.71464379      -0.00013758       0.00000000
Si       0.00039096      -2.71497448      -2.71397209       0.00000000
