10
Lattice="16.28999089631971 0.0 0.0 0.0 16.28999089631971 0.0 0.0 0.0 34.395419527814205" Properties=species:S:1:pos:R:3:initial_magmoms:R:1 pbc="T T T"
Si      -1.31429349       1.38337938       1.37296273       0.00000000
Si       1.34794863       1.35879777      -1.36845693       0.00000000
Si      -1.36653552      -1.35658233      -1.36739067       0.00000000
Si       1.49056758      -1.35114147       1.37282515       0.00000000
Si       0.49466214       2.23078518       2.77423290       0.00000000
Si      -2.36597589      -0.05385474       2.86372983       0.00000000
Si       2.71085148      -2.71199178      -0.03639037       0.00000000
Si       2.71402803       2.71049310       0.00846128       0.00000000
Si       2.70578529       0.00278559      -2.72914048       0.00000000
Si      -2.73584034      -2.70474273       0.00873644       0.00000000
