10
Lattice="16.28999089631971 0.0 0.0 0.0 16.28999089631971 0.0 0.0 0.0 34.395419527814205" Properties=species:S:1:pos:R:3:initial_magmoms:R:1 pbc="T T T"
Si       1.05168240       1.43723412      -1.49076711       0.00000000
Si      -1.23121449       1.78649172       1.13191949       0.00000000
Si       1.93635972      -1.10856708       1.14908282       0.00000000
Si      -1.72721241      -1.28647017      -1.32718240       0.00000000
Si       2.86063803       2.28463992      -0.08949693       0.00000000
Si       2.36597589       0.05385474      -2.86372983       0.00000000
Si      -0.36986445      -2.65088799      -2.85499339       0.00000000
Si       2.64038094      -2.96201070      -0.14270668       0.00000000
Si       3.77289432       0.52712811       1.23156308       0.00000000
Si      -3.10946615      -2.52407034       0.19712026       0.00000000
