10
Lattice="16.28999089631971 0.0 0.0 0.0 16.28999089631971 0.0 0.0 0.0 34.395419527814205" Properties=species:S:1:pos:R:3:initial_magmoms:R:1 pbc="T T T"
Si       1.41345072       1.81431504       0.14078053       0.00000000
Si      -1.67743017      -0.21411576       1.57304100       0.00000000
Si       1.19682630      -2.17210860       0.58716453       0.00000000
Si       0.07556931      -2.51067996      -1.43535605       0.00000000
Si      -0.49337523      -2.06428509       2.42026944       0.00000000
Si      -3.29017275      -0.86872941       0.00337075       0.00000000
Si       1.75262481       1.60948458       2.45452730       0.00000000
Si       3.35152089      -1.06266186       0.08516311       0.00000000
Si       3.18260988       0.95508270      -1.18657385       0.00000000
Si       0.54713223      -1.23160545      -3.45061921       0.00000000
