10
Lattice="16.28999089631971 0.0 0.0 0.0 16.28999089631971 0.0 0.0 0.0 34.395419527814205" Properties=species:S:1:pos:R:3:initial_magmoms:R:1 pbc="T T T"
Si      -1.45704276       1.44511848       1.20126070       0.00000000
Si      -1.24028802      -2.05912116      -0.10019391       0.00000000
Si       0.60155712       0.71988768      -2.25575606       0.00000000
Si       2.26344663      -0.00444717       0.92049073       0.00000000
Si       2.68309332      -1.85186349      -0.66121791       0.00000000
Si       0.76952331      -3.26173041      -0.39203921       0.00000000
Si       2.34978363       2.29019481      -1.76847588       0.00000000
Si      -1.51086492       1.48906890      -3.14962472       0.00000000
Si       3.09270537       2.21019462       0.43472395       0.00000000
Si       2.22322662      -0.27952011       3.28015541       0.00000000
