10
Lattice="16.28999089631971 0.0 0.0 0.0 16.28999089631971 0.0 0.0 0.0 34.395419527814205" Properties=species:S:1:pos:R:3:initial_magmoms:R:1 pbc="T T T"
Si      -0.74292174       0.08000019      -2.20319983       0.00000000
Si      -1.21417515       1.40590845       1.40539763       0.00000000
Si      -0.82925874      -2.21464179       0.48576678       0.00000000
Si       2.14203726       1.05521733       0.48057307       0.00000000
Si       2.02494474       0.63431631       2.84928375       0.00000000
Si       1.35581670      -0.07120359      -3.35310814       0.00000000
Si      -3.09270537      -2.21019462      -0.43472395       0.00000000
Si      -0.86947875      -2.48971473       2.84543146       0.00000000
Si       3.89479239      -0.24586497      -0.42014028       0.00000000
Si      -0.83074113       3.72045681       1.02082223       0.00000000
