10
Lattice="16.28999089631971 0.0 0.0 0.0 16.28999089631971 0.0 0.0 0.0 34.395419527814205" Properties=species:S:1:pos:R:3:initial_magmoms:R:1 pbc="T T T"
Si      -0.86690493      -1.70388513       1.35570795       0.00000000
Si       1.73102427       1.00605411       1.35919565       0.00000000
Si      -1.91109393       1.67387895       0.11331774       0.00000000
Si      -1.69670124      -1.92603186      -2.27646211       0.00000000
Si       0.65072034      -2.18743749      -2.67909512       0.00000000
Si       1.98483876      -0.31556988      -2.93864310       0.00000000
Si      -2.24847612      -0.31172544       2.80343949       0.00000000
Si       0.46807686       2.42717742       2.79650880       0.00000000
Si      -1.72289556      -3.41124003      -0.11044375       0.00000000
Si      -0.93115269       3.63987018       1.31136191       0.00000000
