10
Lattice="16.28999089631971 0.0 0.0 0.0 16.28999089631971 0.0 0.0 0.0 34.395419527814205" Properties=species:S:1:pos:R:3:initial_magmoms:R:1 pbc="T T T"
Si      -1.34374581      -1.34653140       1.38264504       0.00000000
Si       1.37106414       1.37036367       1.38061571       0.00000000
Si       1.28891367      -1.39755168      -1.44464970       0.00000000
Si      -1.35650088       1.23111675      -1.59456910       0.00000000
Si       2.12576355       0.43007229      -2.68990202       0.00000000
Si       0.36986445       2.37148191      -2.82926358       0.00000000
Si      -2.70058878      -2.70309744       0.00962040       0.00000000
Si      -2.69707014       2.71278999      -0.01569120       0.00000000
Si       2.73321765      -2.69478954      -0.00404490       0.00000000
Si      -2.70169650       0.00892692       2.74043938       0.00000000
