10
Lattice="16.28999089631971 0.0 0.0 0.0 16.28999089631971 0.0 0.0 0.0 34.395419527814205" Properties=species:S:1:pos:R:3:initial_magmoms:R:1 pbc="T T T"
Si       1.72636533       1.14036516      -1.23469448       0.00000000
Si       1.35650088      -1.23111675       1.59456910       0.00000000
Si      -1.34056926       1.48167324       1.57887790       0.00000000
Si      -1.35581670      -1.57675797      -1.50597131       0.00000000
Si       2.64541455      -2.62866843       0.14991940       0.00000000
Si       3.48226443      -0.80104446      -1.09533292       0.00000000
Si      -2.74331745      -2.72152143       0.11904261       0.00000000
Si       0.01275507      -2.57764815       2.97721415       0.00000000
Si      -2.74872573       2.87145459       0.14400682       0.00000000
Si      -2.70154989       0.13579344       2.97380900       0.00000000
