10
Lattice="16.28999089631971 0.0 0.0 0.0 16.28999089631971 0.0 0.0 0.0 34.395419527814205" Properties=species:S:1:pos:R:3:initial_magmoms:R:1 pbc="T T T"
Si       1.34658027       1.35632169      -1.38916298       0.00000000
Si      -1.36818081      -1.35780408      -1.39098594       0.00000000
Si      -1.28337507       1.42783479       1.47016424       0.00000000
Si       1.48467060      -1.38728898       1.58638643       0.00000000
Si       2.70964602       2.71769328       0.00536569       0.00000000
Si       2.71112841      -2.71938744      -0.01633783       0.00000000
Si      -2.72771163      -2.70431919      -0.02902975       0.00000000
Si      -2.72344365       2.71489140      -0.00742941       0.00000000
Si      -2.78904348       0.05613534       2.65883621       0.00000000
Si       2.70329292       0.00301365      -2.75256378       0.00000000
