10
Lattice="16.28999089631971 0.0 0.0 0.0 16.28999089631971 0.0 0.0 0.0 34.395419527814205" Properties=species:S:1:pos:R:3:initial_magmoms:R:1 pbc="T T T"
Si      -0.32537646       0.66767823       2.18170268       0.00000000
Si      -0.40558842       1.59809787      -1.62656030       0.00000000
Si       2.29493520       0.26020017      -0.35633675       0.00000000
Si      -1.21663494      -2.15528103      -0.31454629       0.00000000
Si      -1.69293825       0.27992736      -3.00671167       0.00000000
Si      -2.97182705      -1.15250121      -1.58466665       0.00000000
Si       1.77174927       0.09615987       3.09840991       0.00000000
Si      -2.06283528      -0.82557720       2.85953359       0.00000000
Si       2.87521758      -1.65713283      -1.53596271       0.00000000
Si       3.39582969       1.08823716       1.57280023       0.00000000
