10
Lattice="16.28999089631971 0.0 0.0 0.0 16.28999089631971 0.0 0.0 0.0 34.395419527814205" Properties=species:S:1:pos:R:3:initial_magmoms:R:1 pbc="T T T"
Si       0.58028238      -1.91733300      -1.17962597       0.00000000
Si      -2.29493520      -0.26020017       0.35633675       0.00000000
Si       1.10089449       0.82803699       1.92913697       0.00000000
Si       1.57319046      -0.10552662      -2.34267333       0.00000000
Si      -2.70052362       1.33789770      -1.27022355       0.00000000
Si      -0.52318593      -0.16404030       3.45474666       0.00000000
Si      -2.62031166       0.40747806       2.53803943       0.00000000
Si       3.55739391       0.55604286      -0.90387773       0.00000000
Si       3.42816534       0.36386973       1.53874874       0.00000000
Si      -1.19485521       2.70959715      -2.45889552       0.00000000
