10
Lattice="16.28999089631971 0.0 0.0 0.0 16.28999089631971 0.0 0.0 0.0 34.395419527814205" Properties=species:S:1:pos:R:3:initial_magmoms:R:1 pbc="T T T"
Si      -0.58028238       1.91733300       1.17962597       0.00000000
Si       0.99290808       1.81180638      -1.16304737       0.00000000
Si       0.91225629      -1.75751181       1.32106001       0.00000000
Si      -1.80895563      -0.84740580      -1.40127017       0.00000000
Si       2.21936589       0.47970792      -2.76577163       0.00000000
Si      -0.49466214      -2.23078518      -2.77423290       0.00000000
Si      -2.87521758       1.65713283       1.53596271       0.00000000
Si      -2.86063803      -2.28463992       0.08949693       0.00000000
Si      -0.92427831      -3.39320700       1.23857975       0.00000000
Si       2.70857088      -2.59408476      -0.00089428       0.00000000
