10
Lattice="16.28999089631971 0.0 0.0 0.0 16.28999089631971 0.0 0.0 0.0 34.395419527814205" Properties=species:S:1:pos:R:3:initial_magmoms:R:1 pbc="T T T"
Si       2.11988286       0.81443484       0.39850555       0.00000000
Si       0.01003464      -1.94083947       1.31834277       0.00000000
Si       0.49782240      -0.61437735      -2.22779257       0.00000000
Si      -1.57304385       1.46575791       1.02384903       0.00000000
Si       1.88250498      -2.91978702       0.28156106       0.00000000
Si      -1.59930333      -0.04285899      -3.14449980       0.00000000
Si       1.81112220       1.79787843       2.49363491       0.00000000
Si       3.35003850      -1.16364357       0.69066041       0.00000000
Si      -0.51106617       1.93764663       3.12602945       0.00000000
Si       1.54333089      -2.71495656      -2.03218571       0.00000000
