10
Lattice="16.28999089631971 0.0 0.0 0.0 16.28999089631971 0.0 0.0 0.0 34.395419527814205" Properties=species:S:1:pos:R:3:initial_magmoms:R:1 pbc="T T T"
Si      -1.02399103      -0.84199005       1.89113001       0.00000000
Si       0.26575832      -1.31829336      -1.90523214       0.00000000
Si      -1.54980195       1.62728792      -0.69365281       0.00000000
Si       1.73628920       1.28158154       0.98487899       0.00000000
Si       2.07404606       2.47728383      -1.02240442       0.00000000
Si      -1.50456689       1.37728529       2.78142155       0.00000000
Si      -0.08827551       3.48983765      -0.86160574       0.00000000
Si      -3.07873248       1.74436415       1.04293849       0.00000000
Si       0.55759367       2.64283910       2.52032577       0.00000000
Si      -1.41060290      -2.89969398      -1.92738281       0.00000000
