10
Lattice="16.28999089631971 0.0 0.0 0.0 16.28999089631971 0.0 0.0 0.0 34.395419527814205" Properties=species:S:1:pos:R:3:initial_magmoms:R:1 pbc="T T T"
Si      -0.96097968      -0.00055386      -2.31409072       0.00000000
Si       2.27814021      -0.77214600      -0.87020460       0.00000000
Si       0.80029512      -1.45083627       2.00831527       0.00000000
Si       0.39294738       2.51196687      -0.59879019       0.00000000
Si      -2.14477398       1.20402648       1.75093420       0.00000000
Si      -0.57754566       2.31399450      -2.69866612       0.00000000
Si       3.52140930       0.96189192       0.14549271       0.00000000
Si      -3.61276362       1.34615673      -0.28603247       0.00000000
Si       1.85645727       0.15211602       3.40682491       0.00000000
Si       2.64513762       2.58475059      -1.23978359       0.00000000
