10
Lattice="16.28999089631971 0.0 0.0 0.0 16.28999089631971 0.0 0.0 0.0 34.395419527814205" Properties=species:S:1:pos:R:3:initial_magmoms:R:1 pbc="T T T"
Si       0.11978037      -2.30003397      -0.62995246       0.00000000
Si       1.17201663      -0.33946731       2.09330640       0.00000000
Si       0.98600112       1.20423825      -1.88132731       0.00000000
Si      -2.23304949       1.04396094       0.14256909       0.00000000
Si      -1.50430005      -3.29211126       0.89565723       0.00000000
Si       2.44705122      -2.76420123      -1.02034069       0.00000000
Si      -0.81103023       1.11197169      -3.60522670       0.00000000
Si       1.20114315       1.61670105       3.35623812       0.00000000
Si      -2.31081795       2.36293864      -2.16859802       0.00000000
Si       3.44178378       0.84457134      -1.80534779       0.00000000
