10
Lattice="16.28999089631971 0.0 0.0 0.0 16.28999089631971 0.0 0.0 0.0 34.395419527814205" Properties=species:S:1:pos:R:3:initial_magmoms:R:1 pbc="T T T"
Si      -1.36604682      -1.35061254       1.38687912       0.00000000
Si       1.34596125       1.37032638       1.38904604       0.00000000
Si      -1.35514881       1.28348113      -1.52121395       0.00000000
Si       1.45213947      -1.32342453      -1.52176084       0.00000000
Si       2.70402597      -2.70432783       0.01849099       0.00000000
Si       2.69790093       2.72788937       0.00954817       0.00000000
Si      -2.70686043       2.72049371       0.00975455       0.00000000
Si      -2.71961550      -2.71858158      -0.00612583       0.00000000
Si       2.70589932       0.00821685       2.74948882       0.00000000
Si      -0.01034415      -2.70779760       2.75148376       0.00000000
