10
Lattice="16.28999089631971 0.0 0.0 0.0 16.28999089631971 0.0 0.0 0.0 34.395419527814205" Properties=species:S:1:pos:R:3:initial_magmoms:R:1 pbc="T T T"
Si      -1.35672894       1.35327872       1.36271289       0.00000000
Si       1.35993807      -1.36210954       1.36044279       0.00000000
Si       1.35193968       1.35756299      -1.37949786       0.00000000
Si      -1.34596125      -1.37032638      -1.38904604       0.00000000
Si       2.69050527      -0.10862987      -2.72302841       0.00000000
Si      -2.71200807       2.71091990       0.00471218       0.00000000
Si       2.71793763       2.71126199      -0.00251087       0.00000000
Si       0.00166158       2.71082216       2.71871867       0.00000000
Si      -2.71295289      -0.00410345       2.71892504       0.00000000
Si      -2.71200807      -2.72093892      -0.00216691       0.00000000
