10
Lattice="16.28999089631971 0.0 0.0 0.0 16.28999089631971 0.0 0.0 0.0 34.395419527814205" Properties=species:S:1:pos:R:3:initial_magmoms:R:1 pbc="T T T"
Si      -1.35754344      -1.35753037      -1.35717522       0.00000000
Si       1.35746199       1.35777964      -1.35717522       0.00000000
Si      -1.35656604       1.35787738       1.35834467       0.00000000
Si       1.35720135      -1.35987195       1.36374475       0.00000000
Si       0.00649971       2.71538824       2.69154627       0.00000000
Si      -2.72205900      -0.00574711       2.69371318       0.00000000
Si      -2.71438641      -0.00027041      -2.71441924       0.00000000
Si       0.00022806       2.71465520      -2.71462561       0.00000000
Si      -2.71477737       2.71470407      -0.00044714       0.00000000
Si       0.00073305      -2.71542801      -2.71466000       0.00000000
