10
Lattice="16.28999089631971 0.0 0.0 0.0 16.28999089631971 0.0 0.0 0.0 34.395419527814205" Properties=species:S:1:pos:R:3:initial_magmoms:R:1 pbc="T T T"
Si       0.86514561      -0.98685472      -1.97453895       0.00000000
Si       1.50026013       1.43612640       1.15331346       0.00000000
Si      -0.54866349      -1.18753123       1.99153030       0.00000000
Si      -1.56279744       1.69943796      -1.05477052       0.00000000
Si       0.86055183       2.60232750      -2.17313822       0.00000000
Si      -2.72740212      -0.18667525      -2.33827072       0.00000000
Si      -0.46568223       0.41769189       3.70284096       0.00000000
Si       3.35670111      -0.00595888       1.68561727       0.00000000
Si      -3.01469256       1.33258716       1.83004371       0.00000000
Si       0.36365796       2.40456690       2.94493747       0.00000000
