10
Lattice="16.28999089631971 0.0 0.0 0.0 16.28999089631971 0.0 0.0 0.0 34.395419527814205" Properties=species:S:1:pos:R:3:initial_magmoms:R:1 pbc="T T T"
Si       0.82934019       1.98687501      -0.75790349       0.00000000
Si      -1.09739214       0.89557533       1.85154086       0.00000000
Si      -0.08298126      -1.60522312      -1.71131066       0.00000000
Si       1.83345579      -0.87101490       1.24604356       0.00000000
Si      -2.54901033       0.91489527      -1.87279724       0.00000000
Si       2.20379265       2.23570476       1.15506762       0.00000000
Si       1.96594236       1.01843451      -2.54952750       0.00000000
Si      -2.06933499      -2.60225324      -1.05676546       0.00000000
Si       0.44258301       2.48702688       2.74338019       0.00000000
Si      -0.97593390      -0.75638868       3.53426891       0.00000000
