10
Lattice="16.28999089631971 0.0 0.0 0.0 16.28999089631971 0.0 0.0 0.0 34.395419527814205" Properties=species:S:1:pos:R:3:initial_magmoms:R:1 pbc="T T T"
Si      -2.25034947       0.56343852       0.05400084       0.00000000
Si       1.09739214      -0.89557533      -1.85154086       0.00000000
Si       0.12145824      -1.65196401       1.68272805       0.00000000
Si       1.53997515       1.59145155       0.89183933       0.00000000
Si      -0.58875318      -0.15664464       3.30880681       0.00000000
Si       1.92673233       1.09129968      -2.60944436       0.00000000
Si      -2.98664118      -1.64571517      -0.42946145       0.00000000
Si       2.93084793      -1.76659023      -0.60549730       0.00000000
Si       2.45605959      -1.91552318       1.67034569       0.00000000
Si      -1.59044157      -3.02576066       0.98474141       0.00000000
