10
Lattice="16.28999089631971 0.0 0.0 0.0 16.28999089631971 0.0 0.0 0.0 34.395419527814205" Properties=species:S:1:pos:R:3:initial_magmoms:R:1 pbc="T T T"
Si      -1.34858394      -1.35663120       1.33192897       0.00000000
Si      -1.35365013       1.35814617      -1.36082114       0.00000000
Si       1.36081773      -1.35612621      -1.35958290       0.00000000
Si       1.37782449       1.36886499       1.38376290       0.00000000
Si      -2.56886784       0.00421911       2.74114449       0.00000000
Si      -0.00146610      -2.53421901       2.82359036       0.00000000
Si      -2.71148679       2.71415835      -0.00013758       0.00000000
Si      -2.71164969      -2.71414206      -0.00127263       0.00000000
Si      -2.71184517       0.00027693      -2.71668933       0.00000000
Si       2.71443528       2.71451673      -0.00134142       0.00000000
