10
Lattice="16.28999089631971 0.0 0.0 0.0 16.28999089631971 0.0 0.0 0.0 34.395419527814205" Properties=species:S:1:pos:R:3:initial_magmoms:R:1 pbc="T T T"
Si      -0.16891101       2.01774456      -1.27173695       0.00000000
Si       1.05785631      -0.03930777       2.14988690       0.00000000
Si      -2.15469459      -1.10944674       0.50200143       0.00000000
Si       1.27726632      -0.26730261      -2.22222051       0.00000000
Si       0.69408432      -2.51962317      -1.38025456       0.00000000
Si      -0.75781080      -2.88647397       1.50455968       0.00000000
Si      -1.93807017       2.87697690       0.05561742       0.00000000
Si      -3.35152089       1.06266186      -0.08516311       0.00000000
Si      -0.73704105       0.80220105       3.50310665       0.00000000
Si      -0.96785406       1.46675160      -3.45330205       0.00000000
