10
Lattice="16.28999089631971 0.0 0.0 0.0 16.28999089631971 0.0 0.0 0.0 34.395419527814205" Properties=species:S:1:pos:R:3:initial_magmoms:R:1 pbc="T T T"
Si      -0.84240477       2.03698305      -0.79188619       0.00000000
Si      -1.54398249      -1.80718002      -0.21228865       0.00000000
Si       1.67383008      -0.54423261      -1.65603719       0.00000000
Si       0.92967030       0.16845489       2.24928972       0.00000000
Si       2.59406847      -1.42659675       1.82233914       0.00000000
Si       0.01870092      -3.58236648       0.25727788       0.00000000
Si       3.55918581      -0.76245345      -0.28806180       0.00000000
Si      -3.33887985      -0.96567120       1.14093110       0.00000000
Si      -0.85102218       1.69246584      -3.14095707       0.00000000
Si       1.57250628       1.29034719      -3.23320564       0.00000000
