10
Lattice="16.28999089631971 0.0 0.0 0.0 16.28999089631971 0.0 0.0 0.0 34.395419527814205" Properties=species:S:1:pos:R:3:initial_magmoms:R:1 pbc="T T T"
Si       0.00861741       0.34451721       2.34907088       0.00000000
Si      -1.91972763      -1.44259353      -0.49295543       0.00000000
Si       2.42352846      -0.40211865      -0.09224857       0.00000000
Si      -0.78304401       2.04512805      -1.27720583       0.00000000
Si       0.85102218      -1.69246584       3.14095707       0.00000000
Si       2.52485226      -2.23669845       1.48491988       0.00000000
Si      -3.68888679      -0.58336119       0.83439895       0.00000000
Si       0.65102985       3.76711137      -0.54578682       0.00000000
Si      -1.75081662      -3.46033809       0.77878152       0.00000000
Si       1.37697741       2.09582253       3.11148018       0.00000000
