10
Lattice="16.28999089631971 0.0 0.0 0.0 16.28999089631971 0.0 0.0 0.0 34.395419527814205" Properties=species:S:1:pos:R:3:initial_magmoms:R:1 pbc="T T T"
Si      -1.69823250       1.27189062       0.95068993       0.00000000
Si      -0.76835043       0.08457768      -2.21558219       0.00000000
Si       1.81905543       1.53218853      -0.36710252       0.00000000
Si      -0.63588015      -2.31282162       0.38794615       0.00000000
Si      -3.53465307      -0.15876234       0.66727151       0.00000000
Si       1.12244616      -0.53885691      -3.42375637       0.00000000
Si       1.32932916      -3.31182216       1.16545505       0.00000000
Si       2.89452123      -2.40738507      -0.38258047       0.00000000
Si      -2.73461859      -2.16161784       1.53785446       0.00000000
Si      -1.99850607       2.06265609      -2.50773704       0.00000000
