10
Lattice="16.28999089631971 0.0 0.0 0.0 16.28999089631971 0.0 0.0 0.0 34.395419527814205" Properties=species:S:1:pos:R:3:initial_magmoms:R:1 pbc="T T T"
Si      -1.35682668      -1.35637056       1.35710643       0.00000000
Si       1.35684297      -1.35669636      -1.35751918       0.00000000
Si       1.35814617       1.35803214       1.35693445       0.00000000
Si      -1.35793440       1.35791811      -1.35772555       0.00000000
Si       2.71388142      -2.71425609      -0.00024077       0.00000000
Si       2.71366965       0.00053757      -2.71466000       0.00000000
Si       2.71404432       0.00117288       2.71441924       0.00000000
Si      -0.00045612      -2.71396287      -2.71452242       0.00000000
Si      -2.71505430      -2.71474479       0.00020637       0.00000000
Si       2.71489140       2.71494301      -0.00034395       0.00000000
