10
Lattice="16.28999089631971 0.0 0.0 0.0 16.28999089631971 0.0 0.0 0.0 34.395419527814205" Properties=species:S:1:pos:R:3:initial_magmoms:R:1 pbc="T T T"
Si       1.15952220       1.96983634       0.54097146       0.00000000
Si       0.43934130      -1.88678925       1.51642610       0.00000000
Si      -2.45578266       0.35966691      -0.07597952       0.00000000
Si       1.52396208      -0.52851276      -1.89374407       0.00000000
Si      -0.14004513      -1.52764362      -3.15846435       0.00000000
Si      -2.43302553       2.77001580       0.17723970       0.00000000
Si       2.75147874      -2.25209250       1.38080489       0.00000000
Si      -0.99473256      -3.60877257       0.78500710       0.00000000
Si       0.29437659       2.95669106       2.51551041       0.00000000
Si      -0.86550399      -3.41659944      -1.65761938       0.00000000
