10
Lattice="16.28999089631971 0.0 0.0 0.0 16.28999089631971 0.0 0.0 0.0 34.395419527814205" Properties=species:S:1:pos:R:3:initial_magmoms:R:1 pbc="T T T"
Si       0.02275713       2.41034889       0.25321922       0.00000000
Si      -0.98600112      -1.20423825       1.88132731       0.00000000
Si       2.45578266      -0.35966691       0.07597952       0.00000000
Si      -1.79703135      -0.09226656      -1.72389939       0.00000000
Si      -0.54362988       1.18930914      -3.23255212       0.00000000
Si      -3.29681907       1.15870039      -0.28727070       0.00000000
Si       0.25063794       3.15679742      -1.96769426       0.00000000
Si      -3.21905061      -0.16027731       2.02389641       0.00000000
Si      -0.86622075      -3.50427222       1.25137485       0.00000000
Si      -2.22839055       3.24494261       0.21025932       0.00000000
