10
Lattice="16.28999089631971 0.0 0.0 0.0 16.28999089631971 0.0 0.0 0.0 34.395419527814205" Properties=species:S:1:pos:R:3:initial_magmoms:R:1 pbc="T T T"
Si      -1.40245497       1.26197472      -1.36830903       0.00000000
Si       1.34146521       1.36250682       1.35829651       0.00000000
Si      -1.37655387      -1.34995967       1.35901882       0.00000000
Si       1.26167679      -1.47091292      -1.38996439       0.00000000
Si      -2.12793012      -0.40460210      -3.01344772       0.00000000
Si      -0.43370496      -2.54222477      -2.72965095       0.00000000
Si       2.68938874      -2.71801016       0.00180232       0.00000000
Si       2.69637035       0.00890462       2.71784502       0.00000000
Si      -0.01918962      -2.70603701       2.71646920       0.00000000
Si       2.70352098       2.72090223      -0.00947594       0.00000000
