10
Lattice="16.28999089631971 0.0 0.0 0.0 16.28999089631971 0.0 0.0 0.0 34.395419527814205" Properties=species:S:1:pos:R:3:initial_magmoms:R:1 pbc="T T T"
Si       1.35412254      -1.35575154      -1.35892939       0.00000000
Si       1.35700587       1.35769005       1.35710643       0.00000000
Si      -1.35788553      -1.35720135       1.35693445       0.00000000
Si      -1.35850455       1.35666378      -1.35910137       0.00000000
Si       2.71240245       2.71355562      -0.00065351       0.00000000
Si      -0.00004887      -2.71471221       2.71428165       0.00000000
Si       2.71471959      -0.00004887       2.71438484       0.00000000
Si      -2.71529865       0.00040725       2.71417847       0.00000000
Si      -0.00065160       2.71529865       2.71441924       0.00000000
Si      -2.71498914       2.71559187       0.00013758       0.00000000
