10
Lattice="16.28999089631971 0.0 0.0 0.0 16.28999089631971 0.0 0.0 0.0 34.395419527814205" Properties=species:S:1:pos:R:3:initial_magmoms:R:1 pbc="T T T"
Si      -1.35832114      -1.34977311      -1.37512964       0.00000000
Si       1.35486699       1.36534635      -1.37626469       0.00000000
Si      -1.35848404       1.31530347       1.42132272       0.00000000
Si       1.34396898      -1.33358085       1.52801737       0.00000000
Si       2.70131694      -2.69799867       0.00020637       0.00000000
Si      -2.71627183      -2.71034649       0.02349208       0.00000000
Si      -2.71656505       2.72139111       0.00240768       0.00000000
Si      -0.00210304      -2.70668124      -2.73636353       0.00000000
Si       2.71234527       2.73230541      -0.01276071       0.00000000
Si       2.71298058       0.00905724      -2.73588199       0.00000000
