10
Lattice="16.28999089631971 0.0 0.0 0.0 16.28999089631971 0.0 0.0 0.0 34.395419527814205" Properties=species:S:1:pos:R:3:initial_magmoms:R:1 pbc="T T T"
Si       1.35621810      -1.35690813      -1.36123388       0.00000000
Si      -1.35941679       1.36032903      -1.36116509       0.00000000
Si       1.35832114       1.34977311       1.37512964       0.00000000
Si      -1.35795069      -1.36057338       1.39862173       0.00000000
Si       2.71180349      -2.71485882      -0.00398987       0.00000000
Si       2.71318814       2.71511946      -0.00113505       0.00000000
Si       2.71286234       0.00110772      -2.71827152       0.00000000
Si      -2.71779102      -2.71370223       0.00288922       0.00000000
Si      -0.00167182      -2.71386513      -2.71837471       0.00000000
Si      -0.00224064       2.71617831      -2.71854669       0.00000000
