10
Lattice="16.28999089631971 0.0 0.0 0.0 16.28999089631971 0.0 0.0 0.0 34.395419527814205" Properties=species:S:1:pos:R:3:initial_magmoms:R:1 pbc="T T T"
Si      -1.60624287       1.35198855       1.32883338       0.00000000
Si       1.01849268      -1.81871334       1.35793192       0.00000000
Si       2.35203232       0.99271260      -0.06693352       0.00000000
Si       0.24384501      -1.16310600      -2.68962012       0.00000000
Si      -1.94150736      -1.39812183      -1.79210555       0.00000000
Si       2.85395003      -0.76527162      -1.63450564       0.00000000
Si       2.12557037      -0.12333159       3.04905043       0.00000000
Si      -2.00622753       3.12494328      -0.44562730       0.00000000
Si       0.19885203      -3.85543575      -0.30219832       0.00000000
Si      -0.44450523       2.77457796       2.86535471       0.00000000
