10
Lattice="16.28999089631971 0.0 0.0 0.0 16.28999089631971 0.0 0.0 0.0 34.395419527814205" Properties=species:S:1:pos:R:3:initial_magmoms:R:1 pbc="T T T"
Si       2.36426611      -0.29331774      -0.09307406       0.00000000
Si      -0.00369783       2.35690236      -0.41381152       0.00000000
Si      -0.55024362      -1.49188707      -1.86516146       0.00000000
Si      -1.05635763      -0.14178816       2.34783265       0.00000000
Si      -1.84524975       2.07039384      -1.94069384       0.00000000
Si      -0.15152958       1.97508105       3.19334132       0.00000000
Si       3.25171436       1.54741968      -1.26764390       0.00000000
Si      -0.78165936       3.52639404       1.45024928       0.00000000
Si       1.16348067      -3.18057363      -1.92992807       0.00000000
Si       3.31650295       0.09277155       2.27395125       0.00000000
