10
Lattice="16.28999089631971 0.0 0.0 0.0 16.28999089631971 0.0 0.0 0.0 34.395419527814205" Properties=species:S:1:pos:R:3:initial_magmoms:R:1 pbc="T T T"
Si      -1.95907775      -0.64697364       1.07379120       0.00000000
Si       1.61274258       0.65461365       1.56967024       0.00000000
Si      -0.44761662       1.86294069      -1.45595892       0.00000000
Si       1.04148486      -2.09505690      -0.79092311       0.00000000
Si       3.29017275       0.86872941      -0.00337075       0.00000000
Si      -3.01101821      -1.76070465      -0.78142997       0.00000000
Si      -1.11436958      -1.75671360       2.95491214       0.00000000
Si      -2.66575166       1.58232915      -2.09303124       0.00000000
Si      -0.17646957       3.86188659      -0.29707340       0.00000000
Si       2.79679752      -1.19555568       2.41689869       0.00000000
