10
Lattice="16.28999089631971 0.0 0.0 0.0 16.28999089631971 0.0 0.0 0.0 34.395419527814205" Properties=species:S:1:pos:R:3:initial_magmoms:R:1 pbc="T T T"
Si      -0.63012978       1.55131299      -1.74309204       0.00000000
Si      -0.90482805      -2.11686921      -0.84550868       0.00000000
Si       1.98278109      -0.96951564       1.07877854       0.00000000
Si      -1.15931043       1.77350859       1.30200494       0.00000000
Si      -2.20429764       0.14180445       2.64116181       0.00000000
Si       0.65689425      -2.46723453       2.46547334       0.00000000
Si       0.14783175       0.38182131      -3.60715285       0.00000000
Si      -3.23320662      -1.70313579      -0.69908729       0.00000000
Si       0.15152958      -1.97508105      -3.19334132       0.00000000
Si      -2.98045098       1.91682801      -1.55697833       0.00000000
