10
Lattice="16.28999089631971 0.0 0.0 0.0 16.28999089631971 0.0 0.0 0.0 34.395419527814205" Properties=species:S:1:pos:R:3:initial_magmoms:R:1 pbc="T T T"
Si       1.35728348       1.35777286      -1.35579940       0.00000000
Si      -1.35705474       1.35723667       1.35714083       0.00000000
Si       1.35719915      -1.35674523       1.35758797       0.00000000
Si      -1.35827649      -1.35716877      -1.35717522       0.00000000
Si       0.00237834       2.71137506      -2.71534791       0.00000000
Si      -2.71379997       0.00032580       2.71441924       0.00000000
Si      -0.00136836      -2.71485882       2.71390330       0.00000000
Si       2.71442781      -2.71446786      -0.00027516       0.00000000
Si      -2.71510317      -2.71440270      -0.00003440       0.00000000
Si       0.00164529      -2.71322982      -2.71631098       0.00000000
