10
Lattice="16.28999089631971 0.0 0.0 0.0 16.28999089631971 0.0 0.0 0.0 34.395419527814205" Properties=species:S:1:pos:R:3:initial_magmoms:R:1 pbc="T T T"
Si      -1.35677781      -1.35154872      -1.37244680       0.00000000
Si       1.35726272       1.36242250      -1.36931681       0.00000000
Si      -1.30036554       1.30049586       1.49551368       0.00000000
Si       1.32480054      -1.25913555       1.56588674       0.00000000
Si       0.58455036       2.13224601       2.88347282       0.00000000
Si      -2.27260161      -0.54973863       2.81186151       0.00000000
Si       2.37889127       0.56593089       2.77392334       0.00000000
Si       2.69184661      -2.68234398      -0.00127263       0.00000000
Si      -2.70453096      -2.71749780      -0.02497109       0.00000000
Si      -2.71397916       2.72534536       0.02493669       0.00000000
