10
Lattice="16.28999089631971 0.0 0.0 0.0 16.28999089631971 0.0 0.0 0.0 34.395419527814205" Properties=species:S:1:pos:R:3:initial_magmoms:R:1 pbc="T T T"
Si       1.30036554      -1.30049586      -1.49551368       0.00000000
Si      -0.97223607      -1.85023449       1.31634784       0.00000000
Si       1.88491590       0.83175015       1.38795914       0.00000000
Si      -1.41361362       1.42484950      -1.47057698       0.00000000
Si       2.62516608      -2.55963141       0.07037307       0.00000000
Si       2.69349711       2.77342856       0.09290208       0.00000000
Si       1.10680776       0.52118619       3.67756031       0.00000000
Si      -2.63624328      -2.84936535       0.05162755       0.00000000
Si      -0.05641227      -2.65204458      -2.86796047       0.00000000
Si       2.65762826       0.06192664      -2.86483049       0.00000000
