10
Lattice="16.28999089631971 0.0 0.0 0.0 16.28999089631971 0.0 0.0 0.0 34.395419527814205" Properties=species:S:1:pos:R:3:initial_magmoms:R:1 pbc="T T T"
Si       1.92953258      -0.90723897       1.00579142       0.00000000
Si      -1.99427949      -1.22632749      -0.31994637       0.00000000
Si      -0.79349404       1.66092840       1.51690764       0.00000000
Si       0.59000588       0.78498252      -2.18617409       0.00000000
Si       0.09395420       3.50166582       0.34233780       0.00000000
Si       0.64605977      -2.07775692       2.76893601       0.00000000
Si       2.94257510       1.20330972       1.52588485       0.00000000
Si      -1.66175172      -1.70093664      -2.66753825       0.00000000
Si      -1.96404525      -2.47559130       1.71382153       0.00000000
Si      -1.43341479       0.56863503      -3.35070046       0.00000000
