10
Lattice="16.28999089631971 0.0 0.0 0.0 16.28999089631971 0.0 0.0 0.0 34.395419527814205" Properties=species:S:1:pos:R:3:initial_magmoms:R:1 pbc="T T T"
Si      -0.50191771       1.75798422       1.56757212       0.00000000
Si       1.28347281       1.17051795      -1.76314459       0.00000000
Si       1.28220219      -2.16458262       0.97793111       0.00000000
Si      -2.61010502      -0.39783438      -1.05511448       0.00000000
Si      -2.85395003       0.76527162       1.63450564       0.00000000
Si       0.37581030      -3.18638916      -1.09570110       0.00000000
Si      -1.91277441      -2.62795167      -0.99677981       0.00000000
Si      -0.64605977       2.07775692      -2.76893601       0.00000000
Si      -1.83545734      -1.05344172       2.99243757       0.00000000
Si       1.06780950       1.43532819       3.36771097       0.00000000
