10
Lattice="16.28999089631971 0.0 0.0 0.0 16.28999089631971 0.0 0.0 0.0 34.395419527814205" Properties=species:S:1:pos:R:3:initial_magmoms:R:1 pbc="T T T"
Si      -1.35717615      -1.35584928       1.35738159       0.00000000
Si       1.35749112      -1.35731538      -1.35724401       0.00000000
Si      -1.35771372       1.35773892      -1.35727841       0.00000000
Si       1.35769963       1.35791811       1.35769115       0.00000000
Si      -0.00231714       2.71360449      -2.71503835       0.00000000
Si      -2.71471959       0.00004887      -2.71438484       0.00000000
Si      -2.71476846      -2.71466334      -0.00010319       0.00000000
Si       2.71516814      -0.00047241      -2.71500396       0.00000000
Si       2.71510298      -2.71507059       0.00027516       0.00000000
Si       0.00110034      -2.71472850      -2.71555428       0.00000000
