10
Lattice="16.28999089631971 0.0 0.0 0.0 16.28999089631971 0.0 0.0 0.0 34.395419527814205" Properties=species:S:1:pos:R:3:initial_magmoms:R:1 pbc="T T T"
Si       1.39080925      -1.29179700       1.30276164       0.00000000
Si       1.37917819       1.33165863      -1.36862890       0.00000000
Si      -1.33405493      -1.38297213      -1.36618683       0.00000000
Si      -1.36704607       1.42320843       1.56715938       0.00000000
Si       2.67815908       0.02637351       2.68291301       0.00000000
Si      -2.69184661       2.68234398       0.00127263       0.00000000
Si       0.02523484       2.68881111      -2.72859016       0.00000000
Si      -2.69209096      -0.02753010      -2.72917488       0.00000000
Si       2.74375891       2.68512957       0.01664739       0.00000000
Si      -2.68941940      -2.74499532       0.01021545       0.00000000
