10
Lattice="16.28999089631971 0.0 0.0 0.0 16.28999089631971 0.0 0.0 0.0 34.395419527814205" Properties=species:S:1:pos:R:3:initial_magmoms:R:1 pbc="T T T"
Si       1.77726343      -1.38629529       0.71786720       0.00000000
Si      -2.17559370      -0.44872434       0.86315354       0.00000000
Si       0.40336321       2.25202734       0.71484040       0.00000000
Si      -0.90253020      -0.66098304      -2.36035259       0.00000000
Si      -2.98058034       1.42003188      -0.36345660       0.00000000
Si       3.51472225       0.10696014       0.04003629       0.00000000
Si       1.50611638      -3.38524119      -0.44101832       0.00000000
Si      -1.69246488       3.38685390       0.08763958       0.00000000
Si       1.42487815      -1.68573807       3.07956121       0.00000000
Si       2.90536222       2.37084660       0.65148401       0.00000000
