10
Lattice="16.28999089631971 0.0 0.0 0.0 16.28999089631971 0.0 0.0 0.0 34.395419527814205" Properties=species:S:1:pos:R:3:initial_magmoms:R:1 pbc="T T T"
Si      -0.27114705      -1.99894590      -1.15888552       0.00000000
Si      -1.77726343       1.38629529      -0.71786720       0.00000000
Si       1.73745882       1.49325543      -0.67783091       0.00000000
Si      -0.35238528      -0.29944278       2.36169401       0.00000000
Si       0.84620034      -1.32970383      -3.17407988       0.00000000
Si       2.06283528       0.82557720      -2.85953359       0.00000000
Si      -2.48928209      -2.27955744      -1.79595783       0.00000000
Si       0.17646957      -3.86188659       0.29707340       0.00000000
Si      -1.37390023       3.63832263      -0.00302680       0.00000000
Si       1.12809879       3.75714189      -0.06638320       0.00000000
