10
Lattice="16.28999089631971 0.0 0.0 0.0 16.28999089631971 0.0 0.0 0.0 34.395419527814205" Properties=species:S:1:pos:R:3:initial_magmoms:R:1 pbc="T T T"
Si       0.88744825       1.84073742      -1.17456984       0.00000000
Si      -2.36426611       0.29331774       0.09307406       0.00000000
Si       0.79349404      -1.66092840      -1.51690764       0.00000000
Si       0.95223684       0.38608929       2.36702530       0.00000000
Si      -2.36796394       2.65022010      -0.32073747       0.00000000
Si       0.93763611      -1.98070110       2.81960049       0.00000000
Si      -0.00812871       3.58469595       0.04051783       0.00000000
Si      -2.91450973      -1.19856933      -1.77208740       0.00000000
Si      -1.20078544      -2.88725589      -1.83685401       0.00000000
Si       3.19758691       1.41498198      -1.33268567       0.00000000
