10
Lattice="16.28999089631971 0.0 0.0 0.0 16.28999089631971 0.0 0.0 0.0 34.395419527814205" Properties=species:S:1:pos:R:3:initial_magmoms:R:1 pbc="T T T"
Si       0.10533114       2.43131508      -0.21387084       0.00000000
Si       1.46798964      -0.14213025       2.03696667       0.00000000
Si      -2.45457883      -0.56343852       0.21122239       0.00000000
Si       0.32925348      -1.40714649      -2.14682571       0.00000000
Si       0.97176366       2.08959975      -2.36086852       0.00000000
Si      -0.20922876       0.46545417      -3.48848858       0.00000000
Si       2.65178394      -1.34671059      -2.02805826       0.00000000
Si      -2.17438920       2.88935730      -0.02067166       0.00000000
Si       3.61276362      -1.34615673       0.28603247       0.00000000
Si       0.08048889      -1.28689371       3.66198059       0.00000000
