10
Lattice="16.28999089631971 0.0 0.0 0.0 16.28999089631971 0.0 0.0 0.0 34.395419527814205" Properties=species:S:1:pos:R:3:initial_magmoms:R:1 pbc="T T T"
Si      -0.68828997      -1.85852610       1.26419778       0.00000000
Si       1.97537427       0.79526151       1.22254834       0.00000000
Si      -1.71358908       1.75392801       0.14714812       0.00000000
Si      -0.27409554      -0.62146350      -2.48506812       0.00000000
Si      -0.53720185       1.64248812      -2.38704112       0.00000000
Si      -2.05853443      -0.59422662       2.69967422       0.00000000
Si       0.67118058       2.13175827       2.69408496       0.00000000
Si       2.00562480      -1.07950572      -2.67826730       0.00000000
Si      -2.03953661      -3.16146546      -0.25500545       0.00000000
Si      -3.48624638       0.65287062       1.30790751       0.00000000
