10
Lattice="16.28999089631971 0.0 0.0 0.0 16.28999089631971 0.0 0.0 0.0 34.395419527814205" Properties=species:S:1:pos:R:3:initial_magmoms:R:1 pbc="T T T"
Si      -1.35719915       1.35674523      -1.35758797       0.00000000
Si       1.35722866      -1.35772263      -1.35786313       0.00000000
Si      -1.35856751      -1.35811359       1.35631534       0.00000000
Si       1.35875829       1.35822762       1.35690006       0.00000000
Si       0.00008433       2.71451809      -2.71338737       0.00000000
Si      -2.71425389       2.71398190      -0.00044714       0.00000000
Si       2.71398855      -0.00076563      -2.71493517       0.00000000
Si      -2.71510097       0.00021177       2.71431605       0.00000000
Si       2.71270164       0.00107514       2.71686131       0.00000000
Si       2.71516143       2.71469620      -0.00044714       0.00000000
