10
Lattice="16.28999089631971 0.0 0.0 0.0 16.28999089631971 0.0 0.0 0.0 34.395419527814205" Properties=species:S:1:pos:R:3:initial_magmoms:R:1 pbc="T T T"
Si       1.35675989       1.35695700      -1.35707204       0.00000000
Si      -1.35722866       1.35772263       1.35786313       0.00000000
Si       1.35819341      -1.35786924       1.35741599       0.00000000
Si      -1.35943847      -1.35923760      -1.35755357       0.00000000
Si      -2.71278252       0.00123804      -2.71603582       0.00000000
Si      -2.71442781       2.71446786       0.00027516       0.00000000
Si      -2.71483506      -2.71510317       0.00020637       0.00000000
Si      -2.71579617      -0.00039096       2.71417847       0.00000000
Si       0.00057829      -2.71492398       2.71517593       0.00000000
Si       2.71511783      -0.00026064       2.71507275       0.00000000
