10
Lattice="16.28999089631971 0.0 0.0 0.0 16.28999089631971 0.0 0.0 0.0 34.395419527814205" Properties=species:S:1:pos:R:3:initial_magmoms:R:1 pbc="T T T"
Si       1.35640314       1.35646858      -1.35734720       0.00000000
Si       1.35394335      -1.35715248       1.35996125       0.00000000
Si      -1.35875829      -1.35822762      -1.35690006       0.00000000
Si      -1.35981872       1.35595537       1.36054598       0.00000000
Si      -0.02523484      -2.68881111       2.72859016       0.00000000
Si      -0.00064508       2.71375014      -2.71448803       0.00000000
Si       2.71438641       2.71421766      -0.00065351       0.00000000
Si       2.71401174      -0.00070047      -2.71466000       0.00000000
Si      -2.71512665       2.71403522       0.00010319       0.00000000
Si       2.71358820      -2.71621089       0.00030956       0.00000000
