10
Lattice="10.86 0.0 0.0 0.0 10.86 0.0 0.0 0.0 10.86" Properties=species:S:1:pos:R:3:initial_magmoms:R:1 pbc="T T T"
Si      -1.20170244      -1.46641494      -1.36714368       0.00000000
Si       1.21322490      -1.52214846       1.42977330       0.00000000
Si      -1.77564258       1.10265924       1.24865022       0.00000000
Si       2.46203802      -0.18438108       2.69651628       0.00000000
Si      -0.25296198       2.53061892       2.69651628       0.00000000
Si       2.46203802      -2.89938108      -0.01848372       0.00000000
Si      -0.16970922       2.60129580      -2.82191670       0.00000000
Si      -2.96796198       2.53061892      -0.01848372       0.00000000
Si      -0.25296198      -2.89938108       2.69651628       0.00000000
Si      -0.25296198      -2.89938108      -2.73348372       0.00000000
