10
Lattice="10.86 0.0 0.0 0.0 10.86 0.0 0.0 0.0 10.86" Properties=species:S:1:pos:R:3:initial_magmoms:R:1 pbc="T T T"
Si      -1.37922000       1.21721052      -1.27640838       0.00000000
Si       1.41903276       1.28788740       1.35015864       0.00000000
Si       1.33578000      -1.49778948      -1.27640838       0.00000000
Si      -1.37922000      -1.49778948       1.43859162       0.00000000
Si      -0.16319322       2.44335882       2.53526700       0.00000000
Si      -0.02172000       2.57471052      -2.63390838       0.00000000
Si      -2.73672000       2.57471052       0.08109162       0.00000000
Si       2.69328000      -0.14028948      -2.63390838       0.00000000
Si      -2.73672000      -0.14028948      -2.63390838       0.00000000
Si       2.81366310       2.60527056      -0.05194338       0.00000000
