10
Lattice="10.86 0.0 0.0 0.0 10.86 0.0 0.0 0.0 10.86" Properties=species:S:1:pos:R:3:initial_magmoms:R:1 pbc="T T T"
Si       1.16472414       1.23540102       1.17663756       0.00000000
Si       1.16472414      -1.47959898      -1.53836244       0.00000000
Si      -1.55027586       1.23540102      -1.53836244       0.00000000
Si       2.52222414      -0.12209898       2.53413756       0.00000000
Si       2.52222414       2.59290102      -0.18086244       0.00000000
Si      -0.36723090       2.58943668       2.53552764       0.00000000
Si       2.52222414      -2.83709898      -0.18086244       0.00000000
Si      -2.78739276       2.62346106      -0.31389744       0.00000000
Si       2.52222414      -0.12209898      -2.89586244       0.00000000
Si      -0.39122064      -2.84977260       2.59586580       0.00000000
