10
Lattice="10.86 0.0 0.0 0.0 10.86 0.0 0.0 0.0 10.86" Properties=species:S:1:pos:R:3:initial_magmoms:R:1 pbc="T T T"
Si      -1.18375086       1.09843470       1.63986000       0.00000000
Si      -0.98488254      -1.84186686      -1.08745524       0.00000000
Si       1.57342938      -1.68270270       1.24381752       0.00000000
Si       0.20397252       1.51342788      -2.13823626       0.00000000
Si      -2.48910114       2.28525894       0.13697718       0.00000000
Si      -2.48910114      -0.42974106      -2.57802282       0.00000000
Si       0.22589886       2.28525894       2.85197718       0.00000000
Si      -2.48910114      -0.42974106       2.85197718       0.00000000
Si      -0.95054322       3.48499572      -1.25229918       0.00000000
Si      -2.48910114      -3.14474106       0.13697718       0.00000000
