10
Lattice="10.86 0.0 0.0 0.0 10.86 0.0 0.0 0.0 10.86" Properties=species:S:1:pos:R:3:initial_magmoms:R:1 pbc="T T T"
Si      -1.47016164       1.32641868      -1.21620054       0.00000000
Si       1.24483836       1.32641868       1.49879946       0.00000000
Si      -1.47016164      -1.38858132       1.49879946       0.00000000
Si       2.49782172       0.19130976      -2.41008378       0.00000000
Si       2.48558250      -2.68969620      -0.02114442       0.00000000
Si      -2.64660372      -0.18884454      -2.60547690       0.00000000
Si      -0.11266164       2.68391868      -2.57370054       0.00000000
Si       2.60233836       2.68391868       0.14129946       0.00000000
Si       2.60233836      -0.03108132       2.85629946       0.00000000
Si      -2.87981136      -2.57540556       0.28668228       0.00000000
