10
Lattice="10.86 0.0 0.0 0.0 10.86 0.0 0.0 0.0 10.86" Properties=species:S:1:pos:R:3:initial_magmoms:R:1 pbc="T T T"
Si      -1.18193724      -1.27059828       1.20232146       0.00000000
Si       1.53306276       1.44440172       1.20232146       0.00000000
Si       1.53306276      -1.27059828      -1.51267854       0.00000000
Si      -2.54710440      -0.09821784       2.58903486       0.00000000
Si      -2.53943724      -2.62809828      -0.15517854       0.00000000
Si       0.17556276      -2.62809828       2.55982146       0.00000000
Si      -2.56942170       0.23421762      -2.68138830       0.00000000
Si      -0.09926040       3.00231216       2.40063558       0.00000000
Si       2.89056276       0.08690172       2.55982146       0.00000000
Si       0.17556276      -2.62809828      -2.87017854       0.00000000
