10
Lattice="10.86 0.0 0.0 0.0 10.86 0.0 0.0 0.0 10.86" Properties=species:S:1:pos:R:3:initial_magmoms:R:1 pbc="T T T"
Si      -1.23991878       1.23991878      -1.09485090       0.00000000
Si       1.23039456      -1.23039456      -1.37588598       0.00000000
Si       2.61212322      -2.61212322       0.00976314       0.00000000
Si       2.61212322       0.10287678      -2.70523686       0.00000000
Si      -0.10287678      -2.61212322      -2.70523686       0.00000000
Si       2.61212322       0.10287678       2.72476314       0.00000000
Si      -0.10287678      -2.61212322       2.72476314       0.00000000
Si       2.61212322       2.81787678       0.00976314       0.00000000
Si      -2.81787678      -2.61212322       0.00976314       0.00000000
Si      -0.10287678       2.81787678      -2.70523686       0.00000000
