10
Lattice="10.86 0.0 0.0 0.0 10.86 0.0 0.0 0.0 10.86" Properties=species:S:1:pos:R:3:initial_magmoms:R:1 pbc="T T T"
Si       1.67787000       0.00397476       1.60268622       0.00000000
Si      -2.25455772      -1.10155152       0.43584438       0.00000000
Si       0.46044228      -1.10155152      -2.27915562       0.00000000
Si      -0.89705772      -2.45905152       1.79334438       0.00000000
Si       1.81794228      -2.45905152      -0.92165562       0.00000000
Si      -0.77877060       2.75724540       1.53299760       0.00000000
Si       0.46044228      -1.10155152       3.15084438       0.00000000
Si       3.17544228      -1.10155152       0.43584438       0.00000000
Si       2.69071704       1.30327602      -1.86449910       0.00000000
Si      -2.25455772       1.61344848      -2.27915562       0.00000000
