10
Lattice="10.86 0.0 0.0 0.0 10.86 0.0 0.0 0.0 10.86" Properties=species:S:1:pos:R:3:initial_magmoms:R:1 pbc="T T T"
Si      -1.66209042      -0.79137906       1.02602022       0.00000000
Si       1.10465748      -1.30873860      -1.23249054       0.00000000
Si       1.10465748       1.40626140       1.48250946       0.00000000
Si      -1.61034252       1.40626140      -1.23249054       0.00000000
Si       2.46215748       0.04876140      -2.58999054       0.00000000
Si       2.61634776      -2.46255930      -0.06206490       0.00000000
Si       2.30644680       0.15240924       2.81735550       0.00000000
Si       2.46215748       2.76376140       0.12500946       0.00000000
Si      -0.25284252      -2.66623860      -2.58999054       0.00000000
Si      -0.25284252       2.76376140      -2.58999054       0.00000000
