10
Lattice="10.86 0.0 0.0 0.0 10.86 0.0 0.0 0.0 10.86" Properties=species:S:1:pos:R:3:initial_magmoms:R:1 pbc="T T T"
Si       1.92397932      -0.71593464       0.92093886       0.00000000
Si      -0.87252498      -1.12727886      -1.79060766       0.00000000
Si      -2.23027476      -2.40482754      -0.41465652       0.00000000
Si       0.48472524      -2.40482754       2.30034348       0.00000000
Si       1.99641552       1.87135176      -1.95923088       0.00000000
Si      -2.69071704      -1.30327602       1.86449910       0.00000000
Si      -1.01284704      -1.29930126       3.46718532       0.00000000
Si      -2.23027476       0.31017246      -3.12965652       0.00000000
Si       3.19972524       0.31017246       2.30034348       0.00000000
Si      -0.87277476      -3.76232754       0.94284348       0.00000000
