10
Lattice="16.2900001489832 0.0 0.0 0.0 16.2900001489832 0.0 0.0 0.0 29.27583429601014" Properties=species:S:1:pos:R:3:initial_magmoms:R:1 pbc="T T T"
Si      -0.39891604       1.73832221      -1.55624480       0.00000000
Si       0.06498081       1.17380854       2.06192629       0.00000000
Si      -1.61276540      -1.68052529      -0.52438874       0.00000000
H        2.00200844       0.08969274      -1.37081167       0.00000000
H        0.24760800      -1.42027624      -2.29566455       0.00000000
H        2.15622587       0.14652855      -2.12460585       0.00000000
H        0.71110738      -1.59426973      -2.87728755       0.00000000
Si      -1.88762006       2.49794120       1.42087334       0.00000000
Si       1.77170042       2.76097584       1.34294107       0.00000000
Si       1.45559296       3.17443233      -1.06066348       0.00000000
