10
Lattice="16.2900001489832 0.0 0.0 0.0 16.2900001489832 0.0 0.0 0.0 29.27583429601014" Properties=species:S:1:pos:R:3:initial_magmoms:R:1 pbc="T T T"
Si      -1.85025080      -1.36120870      -0.39756583       0.00000000
Si      -0.83846260       2.17923712      -0.16107564       0.00000000
Si       0.96482413      -0.19728819       2.14477690       0.00000000
H        0.98230330       0.45056511      -2.49722867       0.00000000
Si       0.67217428       3.42130728       1.13104258       0.00000000
Si       1.12811509       2.00428089       3.00279305       0.00000000
Si      -2.60113510       2.39886379       1.36931860       0.00000000
Si      -0.55892620      -1.33253830       3.55868259       0.00000000
Si      -1.38999313      -3.59376951      -0.85672801       0.00000000
Si      -3.61724340      -1.07891929       1.15768359       0.00000000
