10
Lattice="16.2900001489832 0.0 0.0 0.0 16.2900001489832 0.0 0.0 0.0 29.27583429601014" Properties=species:S:1:pos:R:3:initial_magmoms:R:1 pbc="T T T"
Si       0.39891604      -1.73832221       1.55624480       0.00000000
Si       1.85450900       1.43611012       0.49558132       0.00000000
Si      -0.11992047      -0.71048836      -2.31694808       0.00000000
Si      -1.73339611       1.53345916       0.75312084       0.00000000
H        2.40092448      -1.64862947       0.18543313       0.00000000
H        2.55514191      -1.59179365      -0.56836105       0.00000000
H        0.64652404      -3.15859845      -0.73941975       0.00000000
Si      -1.48870402       0.75961900       2.97711814       0.00000000
H       -1.70060434       1.71724295      -2.59205309       0.00000000
Si       0.98766923       3.41536632      -0.58932254       0.00000000
