10
Lattice="16.2900001489832 0.0 0.0 0.0 16.2900001489832 0.0 0.0 0.0 29.27583429601014" Properties=species:S:1:pos:R:3:initial_magmoms:R:1 pbc="T T T"
Si       0.32179266      -1.88193648      -1.34475617       0.00000000
Si      -0.52652538       2.19202966      -0.72609924       0.00000000
Si       2.32943744       0.35460561       0.41811747       0.00000000
Si      -1.61243308      -0.14411926       1.78805086       0.00000000
Si       1.56744010       2.14061842       1.80699232       0.00000000
Si       0.13338252       0.80338208       3.27468650       0.00000000
Si      -3.08177481      -1.62027020       0.43632703       0.00000000
Si      -1.26889327      -1.65214973      -2.99673295       0.00000000
Si       3.24531012      -1.69551371       1.27408431       0.00000000
Si      -2.33522039       3.05552999       0.49599118       0.00000000
