10
Lattice="16.2900001489832 0.0 0.0 0.0 16.2900001489832 0.0 0.0 0.0 29.27583429601014" Properties=species:S:1:pos:R:3:initial_magmoms:R:1 pbc="T T T"
Si      -2.19191726      -0.17539280       0.72320093       0.00000000
Si       0.55863298       2.23811896       0.55504054       0.00000000
Si       1.74992069      -0.80328108       1.42078551       0.00000000
Si      -0.45364392      -0.81040633      -2.28954590       0.00000000
Si       3.27163476      -0.99128723      -0.36061973       0.00000000
Si      -2.58867650       1.82630775       1.84768573       0.00000000
Si      -3.46234179       0.43735718      -1.15586849       0.00000000
Si       1.37187865       3.33365405      -1.31823227       0.00000000
Si      -2.57561192      -2.22508044       1.78998306       0.00000000
Si       1.10688922      -2.82714256       2.39894969       0.00000000
