10
Lattice="16.2900001489832 0.0 0.0 0.0 16.2900001489832 0.0 0.0 0.0 29.27583429601014" Properties=species:S:1:pos:R:3:initial_magmoms:R:1 pbc="T T T"
Si      -1.43433451      -1.38472658       1.22326146       0.00000000
Si       1.30300453      -1.43321539      -1.35274848       0.00000000
Si      -1.42866559       1.32758614      -1.37092877       0.00000000
Si       1.46219041       1.17978697       1.50922781       0.00000000
Si       2.58924665       2.56380167      -0.06183056       0.00000000
Si      -2.56580534       0.11179827       2.64091446       0.00000000
Si      -0.06297714      -2.74654078       2.57598066       0.00000000
Si       2.66098781      -0.08793342      -2.75740300       0.00000000
Si      -0.08586459       2.67147857      -2.76601010       0.00000000
Si      -2.72315045       2.75801106       0.01182744       0.00000000
