10
Lattice="16.2900001489832 0.0 0.0 0.0 16.2900001489832 0.0 0.0 0.0 29.27583429601014" Properties=species:S:1:pos:R:3:initial_magmoms:R:1 pbc="T T T"
Si       2.22058766      -0.49423860       0.26869361       0.00000000
Si      -0.23185557       1.34524450      -1.89332676       0.00000000
Si      -1.30375387       0.89860528       1.75034358       0.00000000
Si      -0.70643215      -2.24304505      -0.48147037       0.00000000
H       -0.08788455      -3.20588832       0.52910215       0.00000000
Si       2.19755360      -1.46256345      -1.93077055       0.00000000
Si      -1.97325659      -1.18656687       2.52688509       0.00000000
Si      -1.07106751       3.18606339      -0.77302840       0.00000000
Si       1.89223013      -2.09350448       2.01804181       0.00000000
Si      -2.93666349      -1.86959517       0.36852420       0.00000000
