10
Lattice="16.2900001489832 0.0 0.0 0.0 16.2900001489832 0.0 0.0 0.0 29.27583429601014" Properties=species:S:1:pos:R:3:initial_magmoms:R:1 pbc="T T T"
Si       0.83921194      -1.84081889      -1.12029835       0.00000000
Si      -1.72586036      -0.84856240       1.34654200       0.00000000
Si       0.10041156       1.75443302      -1.59193204       0.00000000
Si       1.34998489       0.51166890       1.88305094       0.00000000
Si       0.45276426       2.65641032       2.00100327       0.00000000
Si      -0.23268636      -2.28745811       2.52337199       0.00000000
Si      -1.86297329       2.77736358      -0.73333037       0.00000000
Si       1.07106751      -3.18606339       0.77302840       0.00000000
Si      -1.85013677       2.52535727       1.67876417       0.00000000
H       -2.89290855       1.80550217      -1.25722143       0.00000000
