10
Lattice="16.2900001489832 0.0 0.0 0.0 16.2900001489832 0.0 0.0 0.0 29.27583429601014" Properties=species:S:1:pos:R:3:initial_magmoms:R:1 pbc="T T T"
Si       1.46808739       1.80442703      -0.26386309       0.00000000
Si      -0.14599098      -1.30152214      -1.94242233       0.00000000
Si      -2.22975893       0.66508813       0.50079242       0.00000000
Si       1.12860379      -1.53365464       1.53946975       0.00000000
Si      -1.39755169      -3.02257695      -1.01165573       0.00000000
Si      -0.64211923      -3.22978575       1.20127531       0.00000000
Si       2.76421755      -2.22348728      -0.13074588       0.00000000
Si       2.48112992       0.42373548       2.61585435       0.00000000
Si       1.99405892       1.86315248      -2.50246904       0.00000000
Si      -2.08591823       1.47756817       2.68201773       0.00000000
