10
Lattice="16.2900001489832 0.0 0.0 0.0 16.2900001489832 0.0 0.0 0.0 29.27583429601014" Properties=species:S:1:pos:R:3:initial_magmoms:R:1 pbc="T T T"
Si       1.20935332       1.30186423      -1.58300291       0.00000000
Si       1.44998920      -1.46346103       1.19752800       0.00000000
Si      -1.41781645      -1.28748016      -1.51148205       0.00000000
Si      -0.91004086       1.80744068       1.39669150       0.00000000
Si       2.47834433       2.68048694      -0.16652095       0.00000000
Si      -2.60524343       2.58642848      -0.13815266       0.00000000
Si       2.43463826      -2.76139938      -0.41928850       0.00000000
Si      -2.75024073      -2.66510918      -0.15876285       0.00000000
Si       0.73821394       3.62691966       1.19117515       0.00000000
Si       2.53162892      -0.03461625      -3.00250029       0.00000000
