10
Lattice="16.2900001489832 0.0 0.0 0.0 16.2900001489832 0.0 0.0 0.0 29.27583429601014" Properties=species:S:1:pos:R:3:initial_magmoms:R:1 pbc="T T T"
Si       2.30290103       0.13105305       0.32223911       0.00000000
Si      -0.61382350       1.97907212       1.06891926       0.00000000
H       -2.02206143       0.68501080      -1.05884837       0.00000000
Si      -1.09556767      -1.86412988       1.00784987       0.00000000
Si      -0.01283652       0.25200630      -2.41209454       0.00000000
H       -1.04277178      -0.71985511      -2.93598559       0.00000000
Si       0.12427641      -3.37391967      -0.33222217       0.00000000
Si      -3.27681172      -0.11692962      -1.32200885       0.00000000
Si       1.85013677      -2.52535727      -1.67876417       0.00000000
Si      -0.65865358       3.43132563      -0.75566783       0.00000000
