10
Lattice="16.2900001489832 0.0 0.0 0.0 16.2900001489832 0.0 0.0 0.0 29.27583429601014" Properties=species:S:1:pos:R:3:initial_magmoms:R:1 pbc="T T T"
H       -0.85160863       0.74049454      -0.99014092       0.00000000
Si       1.57449367      -1.06047901      -1.37914942       0.00000000
Si       1.27171144       1.44941905       1.35359455       0.00000000
Si      -1.43586577      -1.28969560       1.36129409       0.00000000
H       -2.11791179       2.00797058      -1.09950373       0.00000000
Si       0.18285525      -2.58649364      -2.72373872       0.00000000
Si       2.68400558      -2.64639197      -0.03841575       0.00000000
Si       2.64577295       0.06556725       2.70318123       0.00000000
Si       2.61404003       2.74826964      -0.08557619       0.00000000
Si      -2.80686477      -2.57707802      -0.06674597       0.00000000
