10
Lattice="16.2900001489832 0.0 0.0 0.0 16.2900001489832 0.0 0.0 0.0 29.27583429601014" Properties=species:S:1:pos:R:3:initial_magmoms:R:1 pbc="T T T"
Si       0.84277945       0.01428633       2.17613131       0.00000000
Si       1.34488612      -1.26614026      -1.45553593       0.00000000
Si      -1.96926554      -1.30352581       0.07137448       0.00000000
Si      -1.48936213       1.77256379      -0.56818539       0.00000000
H        1.52270776       2.63783972       0.45040871       0.00000000
Si      -3.01311246       0.63731368       0.84572030       0.00000000
Si      -0.19986201      -1.51234732      -3.23919541       0.00000000
Si      -0.07162713      -1.91378180       3.14557129       0.00000000
Si      -2.09290664      -2.27597366      -2.11684775       0.00000000
Si       0.90416017       3.60068299      -0.56016381       0.00000000
