10
Lattice="16.2900001489832 0.0 0.0 0.0 16.2900001489832 0.0 0.0 0.0 29.27583429601014" Properties=species:S:1:pos:R:3:initial_magmoms:R:1 pbc="T T T"
Si      -0.96482413       0.19728819      -2.14477690       0.00000000
Si      -1.52375032      -1.13525011       1.41390569       0.00000000
Si       0.16329096       2.20156909       0.85801615       0.00000000
Si       1.48936213      -1.77256379       0.56818539       0.00000000
Si       2.39352230       1.82811920       0.00802158       0.00000000
Si      -0.47990340      -3.07608960       0.63955988       0.00000000
H       -2.55956627       0.95970907       1.79519416       0.00000000
H        3.01206990       0.86527594       1.01859410       0.00000000
Si      -2.26167104       2.29563895       1.17709347       0.00000000
Si      -0.29264985       3.61859547      -1.01373431       0.00000000
