10
Lattice="16.2900001489832 0.0 0.0 0.0 16.2900001489832 0.0 0.0 0.0 29.27583429601014" Properties=species:S:1:pos:R:3:initial_magmoms:R:1 pbc="T T T"
Si       0.81324568       1.09553509      -1.87327281       0.00000000
Si      -1.89574877       1.30924360       0.36187859       0.00000000
Si      -0.55863298      -2.23811896      -0.55504054       0.00000000
Si       1.01445976       0.38727846       2.17355504       0.00000000
Si       1.78409711       2.80096779      -0.58630713       0.00000000
Si       1.19128771      -3.04140004       0.86574497       0.00000000
Si      -3.14730948      -0.41181120       1.29264519       0.00000000
Si      -2.75055024      -2.41351176       0.16816039       0.00000000
Si       2.45612477       2.22518144       1.65815398       0.00000000
Si      -1.10943046       1.61083666      -3.21627243       0.00000000
