10
Lattice="16.2900001489832 0.0 0.0 0.0 16.2900001489832 0.0 0.0 0.0 29.27583429601014" Properties=species:S:1:pos:R:3:initial_magmoms:R:1 pbc="T T T"
Si       0.85020769      -2.13061799       0.62135031       0.00000000
Si       1.44166501       1.83790298      -0.51540106       0.00000000
Si      -1.01445976      -0.38727846      -2.17355504       0.00000000
Si      -1.63561375       0.68983264       1.67021562       0.00000000
Si      -2.91020853       0.92196514      -1.81167645       0.00000000
Si      -2.76421755       2.22348728       0.13074588       0.00000000
Si       0.17682795      -3.42867851      -1.30781007       0.00000000
Si       0.76963735       2.41368932      -2.75986217       0.00000000
Si      -3.40633677      -1.00629847       1.33202118       0.00000000
Si      -0.55037395      -2.84372252       2.47623789       0.00000000
