10
Lattice="16.2900001489832 0.0 0.0 0.0 16.2900001489832 0.0 0.0 0.0 29.27583429601014" Properties=species:S:1:pos:R:3:initial_magmoms:R:1 pbc="T T T"
Si       1.33446052       1.34798122       1.38919689       0.00000000
Si      -1.31887099      -1.37487601       1.39721847       0.00000000
Si      -1.37968156       1.35640315      -1.35968685       0.00000000
Si       1.35580042      -1.37023336      -1.37312446       0.00000000
Si       2.69545745       2.70441695       0.01920495       0.00000000
Si      -0.06102234       2.69114060       2.72001776       0.00000000
Si       2.71707428      -2.70767495       0.03480897       0.00000000
Si      -2.73241946       2.70425405       0.02754856       0.00000000
Si      -2.70583418      -2.74522341       0.03744379       0.00000000
Si       2.75698479      -0.00791694       2.69586520       0.00000000
