10
Lattice="16.2900001489832 0.0 0.0 0.0 16.2900001489832 0.0 0.0 0.0 29.27583429601014" Properties=species:S:1:pos:R:3:initial_magmoms:R:1 pbc="T T T"
Si       1.01731051       1.61666848      -1.38501044       0.00000000
Si      -0.78687217       1.06253155       1.98414039       0.00000000
Si      -1.70455304      -0.95456143      -1.37602276       0.00000000
Si       1.72214624      -1.62220708       1.21682078       0.00000000
Si       1.33796287       2.01795635       2.18772455       0.00000000
Si      -0.04807179      -2.53272035       2.45577408       0.00000000
Si       2.00195957       0.31873014      -3.00182695       0.00000000
Si      -0.42399612      -2.51835257      -2.65605007       0.00000000
Si       2.69215058       0.11290599       2.60470025       0.00000000
Si      -0.88728373      -0.69190147       3.57607244       0.00000000
