10
Lattice="16.2900001489832 0.0 0.0 0.0 16.2900001489832 0.0 0.0 0.0 29.27583429601014" Properties=species:S:1:pos:R:3:initial_magmoms:R:1 pbc="T T T"
Si      -0.81324568      -1.09553509       1.87327281       0.00000000
Si       1.86465116      -0.90243343      -1.07254947       0.00000000
Si       0.97085143       1.70543270       1.28696568       0.00000000
Si      -1.92267614       0.51530157      -1.34299962       0.00000000
Si      -2.70899444       0.21370851       2.23515140       0.00000000
Si       2.72329706       2.29348541      -0.12269502       0.00000000
Si      -3.39332106       1.36187659       0.30959195       0.00000000
Si       3.79387587       0.21214467      -0.30309271       0.00000000
Si      -0.56894455       3.37838313       1.67510469       0.00000000
Si       1.68493988      -0.49433634      -3.39403530       0.00000000
