10
Lattice="16.2900001489832 0.0 0.0 0.0 16.2900001489832 0.0 0.0 0.0 29.27583429601014" Properties=species:S:1:pos:R:3:initial_magmoms:R:1 pbc="T T T"
Si      -2.25899948       0.14190219       0.49297577       0.00000000
Si       0.92035243      -2.12066480       0.41761978       0.00000000
Si      -0.02955006       0.43504074      -2.36144735       0.00000000
Si       0.90181441       1.46111527       1.68502919       0.00000000
Si       3.14669046      -1.78292423      -0.32671831       0.00000000
Si      -2.68726358      -1.11102688       2.46865545       0.00000000
Si       2.12222864       1.09877680      -2.99535699       0.00000000
Si      -3.60898437      -0.36976671      -1.39007516       0.00000000
Si       1.10006371      -2.52876188       2.73910561       0.00000000
Si      -1.38373777       2.34009110      -2.77842305       0.00000000
