10
Lattice="16.2900001489832 0.0 0.0 0.0 16.2900001489832 0.0 0.0 0.0 29.27583429601014" Properties=species:S:1:pos:R:3:initial_magmoms:R:1 pbc="T T T"
Si      -0.32130396      -0.95055409      -2.09190474       0.00000000
Si       1.48043521       1.84388141      -0.23675367       0.00000000
Si       1.03584853      -1.25903782       1.77973652       0.00000000
Si      -2.28418382       1.00102051      -0.10671042       0.00000000
Si      -1.78059476       2.03919851       1.96552096       0.00000000
Si       2.06804810       2.21099285       2.02790777       0.00000000
Si      -1.89486911       2.48986690      -1.91364418       0.00000000
Si      -1.00336627       0.95197132      -3.40826335       0.00000000
Si       2.88797268       0.06502968       2.37670006       0.00000000
Si      -0.56058778      -1.26341983       3.48438052       0.00000000
