10
Lattice="16.2900001489832 0.0 0.0 0.0 16.2900001489832 0.0 0.0 0.0 29.27583429601014" Properties=species:S:1:pos:R:3:initial_magmoms:R:1 pbc="T T T"
Si      -0.61683715       1.31846374       1.82493841       0.00000000
Si      -2.12483504      -0.95542480      -0.20358415       0.00000000
Si       1.35418771      -1.90505036       0.41697571       0.00000000
Si      -1.33796287      -2.01795635      -2.18772455       0.00000000
H        1.31577589       3.20149002      -0.64418546       0.00000000
Si      -0.32065236      -0.40128786      -3.57273499       0.00000000
Si      -1.41988528       3.28421064       0.78453381       0.00000000
Si       3.50596641      -1.24131430      -0.21693393       0.00000000
Si      -2.22524660      -2.70985781       1.38834789       0.00000000
Si       0.38418336      -3.64016343      -0.97090377       0.00000000
