10
Lattice="16.2900001489832 0.0 0.0 0.0 16.2900001489832 0.0 0.0 0.0 29.27583429601014" Properties=species:S:1:pos:R:3:initial_magmoms:R:1 pbc="T T T"
Si      -1.14534991       0.60400063      -0.80048914       0.00000000
Si       0.50616288       0.25862004       2.12574760       0.00000000
Si       2.34509213      -0.13642875       0.43694183       0.00000000
H        0.54615483       2.41746860       0.25188928       0.00000000
Si      -2.43152687      -1.30018636      -0.99801319       0.00000000
Si      -0.89029738      -1.73296280       2.27385405       0.00000000
Si      -0.26274141       1.54111546      -2.71647539       0.00000000
Si      -2.32145534       2.02206143       0.66857223       0.00000000
Si       2.40016862      -0.83012212      -1.89373662       0.00000000
Si      -0.89173090      -2.97313680      -1.38615220       0.00000000
