10
Lattice="16.2900001489832 0.0 0.0 0.0 16.2900001489832 0.0 0.0 0.0 29.27583429601014" Properties=species:S:1:pos:R:3:initial_magmoms:R:1 pbc="T T T"
Si      -0.76471777       1.10392444       0.70873867       0.00000000
H        0.77802670      -1.13292064      -1.83983981       0.00000000
Si      -2.73566118       0.08272062       1.42871927       0.00000000
Si      -1.48284613       2.57331503      -0.93632901       0.00000000
Si       0.81039493       2.29175867       2.03686617       0.00000000
Si       2.54304821      -2.13801365       0.62972320       0.00000000
Si       1.19374750      -0.49241412      -3.17051430       0.00000000
Si       1.81019369      -1.23877306       2.67979277       0.00000000
Si       0.96586669       3.17578440      -1.15443397       0.00000000
Si      -1.31577589      -3.20149002       0.64418546       0.00000000
