10
Lattice="16.2900001489832 0.0 0.0 0.0 16.2900001489832 0.0 0.0 0.0 29.27583429601014" Properties=species:S:1:pos:R:3:initial_magmoms:R:1 pbc="T T T"
H       -0.03604977      -0.72518194      -0.27648098       0.00000000
H        1.29179701      -0.80894512       2.01815891       0.00000000
H       -1.20796867      -2.14625639      -0.92854164       0.00000000
Si       0.32439906       2.49671945      -0.82265094       0.00000000
Si       0.43539912       2.20944530       1.54719857       0.00000000
Si       1.54424314       0.98692966      -2.16272298       0.00000000
Si      -2.12267824      -0.96081679       1.81908324       0.00000000
Si      -1.06722307       0.85742416       2.82845545       0.00000000
Si      -2.23444231       0.18366975      -2.28477394       0.00000000
Si       3.03741714      -0.45196605      -0.98589300       0.00000000
