10
Lattice="16.2900001489832 0.0 0.0 0.0 16.2900001489832 0.0 0.0 0.0 29.27583429601014" Properties=species:S:1:pos:R:3:initial_magmoms:R:1 pbc="T T T"
Si       1.05545517       1.81824095       1.00937221       0.00000000
Si      -1.66047881      -0.35437266       1.60422789       0.00000000
Si       1.21315867      -1.92229495       0.55591882       0.00000000
Si      -1.05019855       0.04015485      -2.14846565       0.00000000
H        2.12267824       0.96081679      -1.81908324       0.00000000
H        2.08662847       0.23563485      -2.09556422       0.00000000
H        0.91470957      -1.18543960      -2.74762488       0.00000000
Si      -2.41392390      -2.24192919       0.49338564       0.00000000
H        3.41447526       0.15187167       0.19907567       0.00000000
Si      -0.96627312       2.99815824       1.57260999       0.00000000
