10
Lattice="16.2900001489832 0.0 0.0 0.0 16.2900001489832 0.0 0.0 0.0 29.27583429601014" Properties=species:S:1:pos:R:3:initial_magmoms:R:1 pbc="T T T"
Si       0.64303147       2.02386147      -0.97816418       0.00000000
Si      -0.59020300      -1.49447719      -1.73602770       0.00000000
Si      -2.09181521       0.37227537       1.04301015       0.00000000
Si       1.34302906      -0.88444927       1.76884591       0.00000000
Si      -0.19388358      -3.42857262      -0.37549185       0.00000000
Si       1.31641120       3.32192199       0.95099620       0.00000000
Si      -2.87515245      -0.95654881      -2.26047499       0.00000000
Si      -3.68250114       0.60206212      -0.60896663       0.00000000
Si       0.83170225       0.55869814       3.66185063       0.00000000
Si      -0.08417043       2.60881746       2.80588379       0.00000000
