10
Lattice="16.2900001489832 0.0 0.0 0.0 16.2900001489832 0.0 0.0 0.0 29.27583429601014" Properties=species:S:1:pos:R:3:initial_magmoms:R:1 pbc="T T T"
H        1.01950966      -1.05058935       0.43003273       0.00000000
Si       0.75344509       1.88755653       1.11084226       0.00000000
Si      -1.82568548       0.03992842       1.46876861       0.00000000
Si       0.23441310       0.15506940      -2.38680022       0.00000000
H       -0.91439029      -2.09438740       1.45992730       0.00000000
H       -2.05772024       1.51414085       1.81065180       0.00000000
H        0.25187598      -2.78018012      -1.74811862       0.00000000
Si       2.41392390       2.24192919      -0.49338564       0.00000000
Si       1.30629552      -1.98001531      -2.48139044       0.00000000
Si       3.62708256       0.31963424       0.06253318       0.00000000
