10
Lattice="16.2900001489832 0.0 0.0 0.0 16.2900001489832 0.0 0.0 0.0 29.27583429601014" Properties=species:S:1:pos:R:3:initial_magmoms:R:1 pbc="T T T"
Si      -0.41062203      -1.78385276       1.44344501       0.00000000
Si      -0.50062428       2.27307404       0.34489860       0.00000000
Si       2.18914796       0.50459904       0.81322412       0.00000000
Si      -0.18990882      -0.87101002      -2.23248730       0.00000000
Si       0.50375196      -3.44057672      -0.05105706       0.00000000
Si      -2.84902329      -1.83083312       1.35617375       0.00000000
Si       0.63653176       0.86986972      -3.57188599       0.00000000
Si       1.38833155      -2.70664868      -2.16749494       0.00000000
Si       1.98623972       2.33069177      -2.32739955       0.00000000
Si      -0.75715921       2.69527826       2.66316409       0.00000000
