10
Lattice="16.2900001489832 0.0 0.0 0.0 16.2900001489832 0.0 0.0 0.0 29.27583429601014" Properties=species:S:1:pos:R:3:initial_magmoms:R:1 pbc="T T T"
Si      -2.29029257       0.58793869      -0.26216510       0.00000000
Si       1.01333575       2.09034911       0.59713919       0.00000000
Si       1.17182116      -0.48198852      -2.05814970       0.00000000
Si       0.56493721      -1.74418661       2.04064275       0.00000000
H       -0.35199432      -2.80924311      -1.36293647       0.00000000
Si       3.23961025       1.75120760       0.11019424       0.00000000
Si       3.15337669       0.91670347      -2.09436391       0.00000000
Si       2.89209405      -1.91953217       1.82060558       0.00000000
Si      -3.73195758      -1.24996429       0.25323597       0.00000000
Si      -2.96088672       2.40389903       1.15338004       0.00000000
