10
Lattice="16.2900001489832 0.0 0.0 0.0 16.2900001489832 0.0 0.0 0.0 29.27583429601014" Properties=species:S:1:pos:R:3:initial_magmoms:R:1 pbc="T T T"
H       -0.47060181       1.37184607      -0.47461983       0.00000000
Si      -1.61697799      -0.13719438       1.68362395       0.00000000
Si      -0.20259873      -1.52041087      -1.78134669       0.00000000
Si       2.33009067       0.46411839      -0.01086133       0.00000000
Si      -3.14890590       0.67026835       0.06859328       0.00000000
Si       2.11094456       1.31463559      -2.16480157       0.00000000
Si       1.58109601      -2.84369646      -0.99274354       0.00000000
Si       2.28293275       1.61015248       2.03063042       0.00000000
Si       0.70187095      -3.37781298       1.08548938       0.00000000
Si       1.12993305      -0.61089130      -3.42530189       0.00000000
