10
Lattice="16.2900001489832 0.0 0.0 0.0 16.2900001489832 0.0 0.0 0.0 29.27583429601014" Properties=species:S:1:pos:R:3:initial_magmoms:R:1 pbc="T T T"
Si       1.35095978      -1.35480673      -1.32868374       0.00000000
Si      -1.30199869      -1.36140418       1.37467608       0.00000000
Si      -1.37360953       1.34728075      -1.35222151       0.00000000
Si       1.38375644       1.36171369       1.33723228       0.00000000
Si      -2.67065192       0.00798210       2.67695301       0.00000000
Si       2.67294054      -0.00200367      -2.68821835       0.00000000
Si       0.03816594       2.68407074      -2.67713452       0.00000000
Si       0.03406884       2.78756112       2.58081117       0.00000000
Si      -2.71056242      -2.69177591       0.01589678       0.00000000
Si       2.70003081      -2.70267392       0.03510173       0.00000000
