10
Lattice="16.2900001489832 0.0 0.0 0.0 16.2900001489832 0.0 0.0 0.0 29.27583429601014" Properties=species:S:1:pos:R:3:initial_magmoms:R:1 pbc="T T T"
Si      -1.37388232       1.33216363      -1.37968224       0.00000000
Si      -1.36878355      -1.36192546       1.36472229       0.00000000
Si       1.38043090      -1.36065484      -1.35664216       0.00000000
Si       1.38324907       1.34260552       1.37388563       0.00000000
Si       2.52552017      -0.21541896       2.70599464       0.00000000
Si      -2.69949737       2.68123628      -0.00143452       0.00000000
Si       0.00130320       2.76117425      -2.62638779       0.00000000
Si      -0.01544292      -2.68993514      -2.71344534       0.00000000
Si      -0.03140712      -2.75898846       2.66462789       0.00000000
Si      -2.68863194      -2.74449036       0.00565024       0.00000000
