10
Lattice="16.2900001489832 0.0 0.0 0.0 16.2900001489832 0.0 0.0 0.0 29.27583429601014" Properties=species:S:1:pos:R:3:initial_magmoms:R:1 pbc="T T T"
Si      -0.81992458       2.14596317      -0.34879229       0.00000000
Si      -1.85212415      -1.32406750      -0.59696354       0.00000000
Si       1.76699261      -0.28228941      -1.55524942       0.00000000
Si       0.70807581      -0.35934111       2.24311442       0.00000000
Si      -1.40753746       1.77885173      -2.61345373       0.00000000
Si       1.01610831       3.47778308       0.21163501       0.00000000
Si      -2.88797268      -0.06502968      -2.37670006       0.00000000
Si      -3.44856045      -1.32844951       1.10768047       0.00000000
Si       3.05831721      -0.25361901       2.40099900       0.00000000
H        2.02250126       1.84134017       2.78228746       0.00000000
