10
Lattice="16.2900001489832 0.0 0.0 0.0 16.2900001489832 0.0 0.0 0.0 29.27583429601014" Properties=species:S:1:pos:R:3:initial_magmoms:R:1 pbc="T T T"
H       -1.27299835      -0.78936454      -0.29413431       0.00000000
Si       0.59339584       1.27915597      -1.83972270       0.00000000
Si      -0.33251148       1.60590079       1.65630960       0.00000000
Si       1.92350693      -1.37935576      -0.31386622       0.00000000
H        1.04277178       2.52853382      -1.13921054       0.00000000
Si       2.47357136      -0.02098152      -2.29964606       0.00000000
Si       0.52593894      -3.34326189      -0.10908176       0.00000000
Si      -1.31299030      -2.94821310       1.57972402       0.00000000
Si       1.31142646       1.08582625       3.25228171       0.00000000
Si      -2.60369588       1.35935164       2.26688640       0.00000000
