10
Lattice="16.2900001489832 0.0 0.0 0.0 16.2900001489832 0.0 0.0 0.0 29.27583429601014" Properties=species:S:1:pos:R:3:initial_magmoms:R:1 pbc="T T T"
Si      -1.20346449      -0.92771551      -1.81287676       0.00000000
Si       2.07426273      -0.10953396      -1.16734462       0.00000000
Si       0.31736341       2.26611821       0.67849674       0.00000000
Si      -0.93843449      -1.10433169       1.95539152       0.00000000
H        1.02647363      -2.32992614       1.35623230       0.00000000
H        2.19839254      -0.90885169       2.00829296       0.00000000
H        2.23444231      -0.18366975       2.28477394       0.00000000
Si      -2.69315242       0.46773477       1.84768573       0.00000000
Si      -0.09030036      -3.00925336      -1.71641289       0.00000000
Si       1.21398783      -3.30976639       0.23613888       0.00000000
