10
Lattice="16.2900001489832 0.0 0.0 0.0 16.2900001489832 0.0 0.0 0.0 29.27583429601014" Properties=species:S:1:pos:R:3:initial_magmoms:R:1 pbc="T T T"
Si      -1.01950966       1.05058935      -0.43003273       0.00000000
H       -1.93389995      -1.04379805       1.02989457       0.00000000
Si       2.06285159      -0.72902638      -1.30256970       0.00000000
H       -0.76763368      -1.72959077      -2.17815135       0.00000000
Si       1.58068387      -2.42773130       0.27510501       0.00000000
Si       2.60757290       1.37022359      -0.36749955       0.00000000
Si      -0.26606457       2.93814588       0.68080953       0.00000000
Si       0.28678586      -0.92942596      -2.91142317       0.00000000
Si      -0.78509656       1.20565875      -2.81683295       0.00000000
Si      -2.84519514       1.09051777       1.03873588       0.00000000
