10
Lattice="16.2900001489832 0.0 0.0 0.0 16.2900001489832 0.0 0.0 0.0 29.27583429601014" Properties=species:S:1:pos:R:3:initial_magmoms:R:1 pbc="T T T"
Si       1.22497543      -1.21000492       1.56602293       0.00000000
Si      -2.22895258       0.36732321       0.58279403       0.00000000
Si       0.02796993      -1.23562909      -1.98715580       0.00000000
Si       1.44603073       1.82136863      -0.35655039       0.00000000
Si       2.27823797      -1.86629645      -1.86899854       0.00000000
Si       1.58987143       2.63384867       1.82467492       0.00000000
Si      -2.87842511       1.93396511      -1.13113041       0.00000000
Si       3.03367044      -2.07350525       0.34393250       0.00000000
Si      -3.22594131      -1.73677466       0.57928093       0.00000000
Si       2.20315736       0.60878989       3.01295176       0.00000000
