10
Lattice="16.2900001489832 0.0 0.0 0.0 16.2900001489832 0.0 0.0 0.0 29.27583429601014" Properties=species:S:1:pos:R:3:initial_magmoms:R:1 pbc="T T T"
Si       1.39818863      -1.37570679       1.25277150       0.00000000
Si      -1.29057086      -1.37895434      -1.42344962       0.00000000
Si       1.40130002       1.32887631      -1.40108288       0.00000000
Si      -1.31113161       1.38929592       1.47901515       0.00000000
Si      -2.60072947       2.67014605      -0.06150853       0.00000000
Si       2.76247614       0.00543271       2.56301147       0.00000000
Si      -2.66465144      -2.73020077      -0.05858094       0.00000000
Si      -2.63658377       0.00640197      -2.77871581       0.00000000
Si       0.05222900       2.67674350      -2.76486834       0.00000000
Si       2.76814506       2.71774543      -0.03117876       0.00000000
