10
Lattice="16.2900001489832 0.0 0.0 0.0 16.2900001489832 0.0 0.0 0.0 29.27583429601014" Properties=species:S:1:pos:R:3:initial_magmoms:R:1 pbc="T T T"
Si      -2.22627450       0.33914151       0.48694495       0.00000000
Si       1.17551247       1.94364137       0.59582178       0.00000000
Si      -0.08623356      -0.83450413      -2.20455815       0.00000000
Si       0.64947253      -1.56664189       1.71392444       0.00000000
Si      -1.38716030       0.54866350       2.81009951       0.00000000
Si       3.21644261       1.40134726      -0.65683262       0.00000000
Si       0.64337844       1.98377993       2.94371441       0.00000000
Si       2.87842511      -1.93396511       1.13113041       0.00000000
Si      -3.23961025      -1.75120760      -0.11019424       0.00000000
Si      -2.06778909      -2.23319612      -2.16834394       0.00000000
