10
Lattice="16.2900001489832 0.0 0.0 0.0 16.2900001489832 0.0 0.0 0.0 29.27583429601014" Properties=species:S:1:pos:R:3:initial_magmoms:R:1 pbc="T T T"
Si      -1.31740489      -1.17312436       1.51655848       0.00000000
Si      -1.47002590       0.53366040      -1.73509087       0.00000000
Si       1.36392913       1.61119504       1.13809513       0.00000000
Si       0.90706630      -1.86176783      -1.26656042       0.00000000
Si       0.23606817       0.18318105      -3.44011546       0.00000000
Si      -2.66212811      -2.45604332       0.11863066       0.00000000
Si       1.91381438       3.03751488      -0.85380043       0.00000000
Si      -1.12347244      -3.29688426      -1.40017533       0.00000000
Si       2.82385524      -2.48174894       0.00204931       0.00000000
Si       0.08023086      -2.56267766       2.76562366       0.00000000
