10
Lattice="16.2900001489832 0.0 0.0 0.0 16.2900001489832 0.0 0.0 0.0 29.27583429601014" Properties=species:S:1:pos:R:3:initial_magmoms:R:1 pbc="T T T"
H       -0.46349937       0.17399349       0.58162300       0.00000000
H       -1.92361607      -0.99779509      -0.89885594       0.00000000
H        1.44511849       1.74079829       0.75268170       0.00000000
H        1.79864408      -1.39295791       1.04239536       0.00000000
H        1.29090106       1.68396248       1.50647588       0.00000000
Si       0.45478422       1.40481703      -2.20651963       0.00000000
Si       0.92018953      -2.71363709       0.92590681       0.00000000
Si       2.57784365       0.73757863      -1.38366376       0.00000000
Si      -1.36576827      -1.72954190      -2.08663509       0.00000000
Si      -1.22994388       2.62210358      -0.99590533       0.00000000
