10
Lattice="16.2900001489832 0.0 0.0 0.0 16.2900001489832 0.0 0.0 0.0 29.27583429601014" Properties=species:S:1:pos:R:3:initial_magmoms:R:1 pbc="T T T"
Si      -1.30186554       1.57755619      -1.16781303       0.00000000
Si       1.34544520       1.35584929       1.38340613       0.00000000
Si      -1.39325244      -1.33219621       1.39297933       0.00000000
Si       1.29735060      -1.29924154      -1.55875959       0.00000000
Si       2.65764706      -2.64486071      -0.04375566       0.00000000
Si       2.62848796       2.73545527      -0.01458229       0.00000000
Si      -0.01099461      -2.70166394       2.73876015       0.00000000
Si       2.68082773       0.00948078       2.76938268       0.00000000
Si      -2.78912626      -2.66147651       0.03617615       0.00000000
Si      -0.01635369       2.72231058       2.75863845       0.00000000
