10
Lattice="16.28999089631971 0.0 0.0 0.0 16.28999089631971 0.0 0.0 0.0 34.25627252547053" Properties=species:S:1:pos:R:3:initial_magmoms:R:1 pbc="T T T"
Si       1.35742941      -1.35708569      -1.35754258       0.00000000
Si      -1.35881406      -1.35507876       1.35846750       0.00000000
Si       1.35866745       1.35697329       1.35723428       0.00000000
Si      -1.35808101       1.35822762      -1.35750833       0.00000000
Si       2.71428867       0.00024435       2.71203636       0.00000000
Si      -2.71419093       0.00034209       2.71268722       0.00000000
Si      -2.71443528      -2.71492162       0.00027405       0.00000000
Si      -2.71585251       0.00099369      -2.71364640       0.00000000
Si      -0.00055386       2.71490769      -2.71460558       0.00000000
Si       2.71489140      -2.71468457       0.00020554       0.00000000
