10
Lattice="16.28999089631971 0.0 0.0 0.0 16.28999089631971 0.0 0.0 0.0 34.25627252547053" Properties=species:S:1:pos:R:3:initial_magmoms:R:1 pbc="T T T"
Si       1.70338014       1.13432157      -1.09106289       0.00000000
Si       1.30660461      -1.63947121       1.06091735       0.00000000
Si      -1.67299929      -0.77745654      -1.48110503       0.00000000
Si      -0.98142363       1.58900805       1.47970052       0.00000000
Si      -3.15899427       1.02944655      -1.24603835       0.00000000
Si       2.86780563      -0.15514596       2.10179478       0.00000000
Si      -0.22719663      -2.34767408       2.71943571       0.00000000
Si       3.18132297       1.66540815       0.67118352       0.00000000
Si      -3.29182456       1.33204959       1.08225902       0.00000000
Si       2.26119861      -0.17756100      -2.94926118       0.00000000
