10
Lattice="16.28999089631971 0.0 0.0 0.0 16.28999089631971 0.0 0.0 0.0 34.25627252547053" Properties=species:S:1:pos:R:3:initial_magmoms:R:1 pbc="T T T"
Si      -1.38121281       1.17530721       1.49049125       0.00000000
Si      -1.48625073      -1.12642092      -1.47211759       0.00000000
Si       1.15277814       1.56009330      -1.40768150       0.00000000
Si       1.32374169      -1.53567459       1.47479844       0.00000000
Si       2.17552950      -0.28815381      -2.50045720       0.00000000
Si       0.48166272      -1.98114093      -2.89173257       0.00000000
Si      -2.42315379      -2.72225448       0.07292137       0.00000000
Si      -2.76468993       2.38071834      -0.02012215       0.00000000
Si       2.65939137       2.51931366       0.15171084       0.00000000
Si      -3.44507436       0.50298633      -1.49938559       0.00000000
