10
Lattice="16.28999089631971 0.0 0.0 0.0 16.28999089631971 0.0 0.0 0.0 34.25627252547053" Properties=species:S:1:pos:R:3:initial_magmoms:R:1 pbc="T T T"
Si      -1.35708732       1.35664749      -1.36288656       0.00000000
Si       1.35922131      -1.35848826      -1.36264677       0.00000000
Si       1.34447886       1.37233476       1.36761393       0.00000000
Si      -1.35741312      -1.37323071       1.39474492       0.00000000
Si       2.64846078      -0.04139289       2.70059475       0.00000000
Si      -2.71197549       2.71301805       0.00037682       0.00000000
Si      -2.71363707      -2.71511946      -0.00719382       0.00000000
Si       2.71484253      -2.71521720      -0.00784469       0.00000000
Si       2.71981098       2.71171485      -0.00294604       0.00000000
Si       0.00006516       2.71489140      -2.71994956       0.00000000
