10
Lattice="16.28999089631971 0.0 0.0 0.0 16.28999089631971 0.0 0.0 0.0 34.25627252547053" Properties=species:S:1:pos:R:3:initial_magmoms:R:1 pbc="T T T"
Si       2.27077713       0.48264012      -0.18690233       0.00000000
Si      -0.31351734      -1.82055411       1.43061125       0.00000000
Si      -0.99502578       1.93321575       0.91382084       0.00000000
Si      -1.47794283      -0.53108658      -1.76224641       0.00000000
Si       2.55513537      -0.24430113      -2.36567099       0.00000000
Si      -1.83319515       1.58092821      -2.63091746       0.00000000
Si      -3.18132297      -1.66540815      -0.67118352       0.00000000
Si      -1.32190092      -1.03759155       3.38287731       0.00000000
Si      -1.87471836      -3.30487936       0.38973383       0.00000000
Si       3.62960748      -1.34706897       0.51942815       0.00000000
