10
Lattice="16.28999089631971 0.0 0.0 0.0 16.28999089631971 0.0 0.0 0.0 34.25627252547053" Properties=species:S:1:pos:R:3:initial_magmoms:R:1 pbc="T T T"
Si       2.32067340      -0.14136462      -0.28812967       0.00000000
Si      -0.42114537      -2.31883263      -0.54265392       0.00000000
Si      -0.73045989       1.39077504      -1.84387916       0.00000000
Si      -0.93931398       0.38864682       2.22134923       0.00000000
Si      -2.88289994      -0.71775369       1.33229570       0.00000000
Si       1.91091474      -0.52924581      -2.63410329       0.00000000
Si      -0.42924150      -0.40321008      -3.29562654       0.00000000
Si       2.88385128       2.03488164       0.47804655       0.00000000
Si      -2.09373741      -2.91004560       1.00141417       0.00000000
Si       1.24103736       3.53631465      -0.29141827       0.00000000
