10
Lattice="16.28999089631971 0.0 0.0 0.0 16.28999089631971 0.0 0.0 0.0 34.25627252547053" Properties=species:S:1:pos:R:3:initial_magmoms:R:1 pbc="T T T"
Si      -0.37447452       1.21938795       2.03297389       0.00000000
Si      -1.23413040       1.04575284      -1.77800431       0.00000000
Si       2.19489831       0.95141745      -0.34424147       0.00000000
Si      -0.62604099      -2.28218013       0.68526286       0.00000000
Si      -1.69617996      -1.20238119      -2.75310965       0.00000000
Si       0.93035448      -0.23182299       3.41041937       0.00000000
Si      -0.45551727      -2.03532147       2.97618662       0.00000000
Si      -3.50414190      -0.72223344      -1.27094268       0.00000000
Si      -2.67542073       1.02301200       2.52592192       0.00000000
Si       1.76782338       3.07685520      -1.48048841       0.00000000
