10
Lattice="16.28999089631971 0.0 0.0 0.0 16.28999089631971 0.0 0.0 0.0 34.25627252547053" Properties=species:S:1:pos:R:3:initial_magmoms:R:1 pbc="T T T"
Si       1.59503535      -1.45455039      -0.91796585       0.00000000
Si       0.34593444       0.50741721       2.28390122       0.00000000
Si       0.03922632       1.91016540      -1.47843304       0.00000000
Si      -1.62556281      -1.63812240       0.73144034       0.00000000
Si       1.01581182      -3.55814325      -0.05878380       0.00000000
Si      -1.32434442      -3.43210752      -0.72030704       0.00000000
Si       1.98874836      -0.99401580       3.05336605       0.00000000
Si      -2.22457869       2.62637154      -1.67482436       0.00000000
Si       3.76541721      -0.78071454      -0.39709893       0.00000000
Si      -1.80354735       0.73192599       3.34581201       0.00000000
