10
Lattice="16.28999089631971 0.0 0.0 0.0 16.28999089631971 0.0 0.0 0.0 34.25627252547053" Properties=species:S:1:pos:R:3:initial_magmoms:R:1 pbc="T T T"
Si       1.34721558       1.34934957       1.36037215       0.00000000
Si      -1.36436895      -1.36402686       1.35328110       0.00000000
Si       1.34539110      -1.41151221      -1.32495115       0.00000000
Si      -1.38707721       1.32649470      -1.40502180       0.00000000
Si      -2.33025192      -0.67728933      -2.43940800       0.00000000
Si      -0.43841277      -2.29895883      -2.57542603       0.00000000
Si       0.16325838       2.46239640      -2.74906196       0.00000000
Si       2.70498708      -0.00602730       2.71503721       0.00000000
Si       2.73566115       2.68439652       0.01031114       0.00000000
Si      -0.00679293       2.70778188       2.71414654       0.00000000
