10
Lattice="16.28999089631971 0.0 0.0 0.0 16.28999089631971 0.0 0.0 0.0 34.25627252547053" Properties=species:S:1:pos:R:3:initial_magmoms:R:1 pbc="T T T"
Si      -1.35651717       1.35694071      -1.35730279       0.00000000
Si       1.35705474       1.35692442       1.35812494       0.00000000
Si      -1.35868374      -1.35728280       1.35706299       0.00000000
Si       1.35832536      -1.35804191      -1.35726853       0.00000000
Si      -2.71482624      -0.00029322       2.71200210       0.00000000
Si      -2.71394658       2.71445157      -0.00027405       0.00000000
Si      -2.71345788       0.00092853      -2.71546198       0.00000000
Si       2.71389771      -0.00197109      -2.71515368       0.00000000
Si      -2.71422351      -2.71522214       0.00017128       0.00000000
Si       0.00037467       2.71580364      -2.71474260       0.00000000
