10
Lattice="16.28999089631971 0.0 0.0 0.0 16.28999089631971 0.0 0.0 0.0 34.25627252547053" Properties=species:S:1:pos:R:3:initial_magmoms:R:1 pbc="T T T"
Si      -1.75275513      -1.11721676       1.16604991       0.00000000
Si      -1.42275231       1.24527537      -1.61076509       0.00000000
Si       1.25713188      -1.45024952      -1.60761351       0.00000000
Si       1.61505576       1.21439116       1.56630042       0.00000000
Si       2.57044797       2.61849467      -0.14188956       0.00000000
Si      -2.75081085       2.45733770      -0.07591194       0.00000000
Si      -3.37387077       0.58620640       1.41838176       0.00000000
Si       2.58809004      -2.86023047      -0.25274292       0.00000000
Si      -0.15653061       0.04933817       3.92059833       0.00000000
Si      -1.67441652       1.66626272       3.14037703       0.00000000
