10
Lattice="16.28999089631971 0.0 0.0 0.0 16.28999089631971 0.0 0.0 0.0 34.25627252547053" Properties=species:S:1:pos:R:3:initial_magmoms:R:1 pbc="T T T"
Si       0.83409687       1.85033223       1.19544181       0.00000000
Si      -1.31171967       1.32701598      -1.48987464       0.00000000
Si      -0.95539221      -1.40410352       1.70818998       0.00000000
Si       1.41732774      -1.36444714      -1.46147617       0.00000000
Si      -2.57044797      -2.61849467       0.14188956       0.00000000
Si      -0.92610279       3.48886188       1.14344076       0.00000000
Si      -2.72298753       2.65971717      -0.14785015       0.00000000
Si       2.68294671       2.72458395      -0.06697105       0.00000000
Si      -2.36952711       0.59639319       2.96936962       0.00000000
Si      -2.65660578      -0.01410714      -2.85628960       0.00000000
