10
Lattice="16.28999089631971 0.0 0.0 0.0 16.28999089631971 0.0 0.0 0.0 34.25627252547053" Properties=species:S:1:pos:R:3:initial_magmoms:R:1 pbc="T T T"
Si       1.62606780      -1.60257762      -0.52936248       0.00000000
Si      -2.24013564      -0.67474809      -0.25126990       0.00000000
Si      -0.15224634       0.10634112       2.37426932       0.00000000
Si       0.18081900       1.74333951      -1.62635170       0.00000000
Si      -1.89923481       2.79459837      -1.09955845       0.00000000
Si      -2.17253214       1.20269070       2.60995261       0.00000000
Si       3.58050942      -0.40633776      -0.18090748       0.00000000
Si      -1.69148844       3.03068934       1.26337204       0.00000000
Si       3.17301507       0.67849479       1.93181506       0.00000000
Si       2.41634457       2.73748563       1.02864793       0.00000000
