10
Lattice="16.28999089631971 0.0 0.0 0.0 16.28999089631971 0.0 0.0 0.0 34.25627252547053" Properties=species:S:1:pos:R:3:initial_magmoms:R:1 pbc="T T T"
Si       1.96349886       0.54342300       1.18989229       0.00000000
Si       0.06263505       2.17831998      -0.96352672       0.00000000
Si       0.13473459      -1.98635603      -1.36802501       0.00000000
Si      -1.96079472      -0.09217371       1.63029118       0.00000000
Si      -0.88317864       2.17190172       2.15725571       0.00000000
Si       0.30763665      -3.22452635       0.71938213       0.00000000
Si       1.85186349       2.74356669       0.40891735       0.00000000
Si      -3.28513914      -0.54993248      -0.27881196       0.00000000
Si       2.46228237      -1.05325829      -2.03948258       0.00000000
Si      -1.25247294      -2.26377473       2.23347596       0.00000000
