10
Lattice="16.28999089631971 0.0 0.0 0.0 16.28999089631971 0.0 0.0 0.0 34.25627252547053" Properties=species:S:1:pos:R:3:initial_magmoms:R:1 pbc="T T T"
Si       1.76963157       0.64984068      -1.38453654       0.00000000
Si      -1.06388361       1.84226868       1.08352651       0.00000000
Si       1.80323784      -0.85096679       1.34498019       0.00000000
Si      -0.78345126      -1.80647045      -1.57075374       0.00000000
Si      -2.06957934       0.25894584       2.69506377       0.00000000
Si       3.21422877      -1.17681308      -0.53179467       0.00000000
Si      -3.49052346       0.61290311      -0.12126727       0.00000000
Si       0.66591891      -2.41029188       2.66331847       0.00000000
Si      -2.25709353      -2.91029714      -0.07776178       0.00000000
Si      -3.26739933      -1.23871508       1.30516471       0.00000000
