10
Lattice="16.28999089631971 0.0 0.0 0.0 16.28999089631971 0.0 0.0 0.0 34.25627252547053" Properties=species:S:1:pos:R:3:initial_magmoms:R:1 pbc="T T T"
Si       1.27356849      -1.34537481       1.43109084       0.00000000
Si       1.36228383       1.34610786      -1.35257542       0.00000000
Si      -1.34897490      -1.36710567      -1.35418547       0.00000000
Si      -1.30505706       1.28966301       1.50806473       0.00000000
Si       0.79881273       2.05376175       2.63471990       0.00000000
Si      -0.57528135      -2.21962653       2.69350370       0.00000000
Si      -2.33548101      -0.58109688       2.64150265       0.00000000
Si       2.45687409       0.19285731       2.78897599       0.00000000
Si      -2.69842221       2.69860140       0.02264341       0.00000000
Si       0.00663003       2.70313002      -2.71340661       0.00000000
