10
Lattice="16.28999089631971 0.0 0.0 0.0 16.28999089631971 0.0 0.0 0.0 34.25627252547053" Properties=species:S:1:pos:R:3:initial_magmoms:R:1 pbc="T T T"
Si       1.30505706      -1.28966301      -1.50806473       0.00000000
Si      -1.03042395      -1.87075989       1.13343792       0.00000000
Si      -1.39336515       1.40893839      -1.48542132       0.00000000
Si       2.10386979       0.76409874       1.12665518       0.00000000
Si      -2.31283791      -0.35060967       2.46501424       0.00000000
Si       2.57862555      -2.63503782      -0.07697389       0.00000000
Si       2.58721038       2.73717612      -0.10962013       0.00000000
Si       0.72977571      -3.50928954       1.18543897       0.00000000
Si      -0.04391784      -2.65676868      -2.86225019       0.00000000
Si      -2.81375541       2.70705591      -0.11753334       0.00000000
