10
Lattice="16.28999089631971 0.0 0.0 0.0 16.28999089631971 0.0 0.0 0.0 34.25627252547053" Properties=species:S:1:pos:R:3:initial_magmoms:R:1 pbc="T T T"
Si      -1.02275136       1.84824711       1.09277570       0.00000000
Si       1.62466686      -1.36076886       1.14392035       0.00000000
Si      -1.69386678      -1.69298712      -0.39127536       0.00000000
Si       1.40753745       0.46271745      -1.99594283       0.00000000
Si      -2.17552950       0.28815381       2.50045720       0.00000000
Si       0.89741610      -1.72375893      -2.87170493       0.00000000
Si      -1.51407405      -1.55492937      -2.87701466       0.00000000
Si       2.22806475      -2.67533928      -0.94907056       0.00000000
Si       3.57431922       0.54556839      -0.90450313       0.00000000
Si      -1.52943552       3.32967600      -0.86031251       0.00000000
