10
Lattice="16.28999089631971 0.0 0.0 0.0 16.28999089631971 0.0 0.0 0.0 34.25627252547053" Properties=species:S:1:pos:R:3:initial_magmoms:R:1 pbc="T T T"
Si      -1.60112781      -1.06749999       1.27521238       0.00000000
Si       1.11855285       1.62570942       1.32823427       0.00000000
Si       1.77989427      -1.83868488      -0.01881767       0.00000000
Si      -1.60368534       0.88251075      -1.97109679       0.00000000
Si       2.07938592      -0.97790499      -2.27700547       0.00000000
Si       0.27844497       0.15516225      -3.37868781       0.00000000
Si      -0.22125078      -2.43900396       2.61787746       0.00000000
Si       2.49737103       0.29651058       2.64637527       0.00000000
Si      -3.10774104      -2.02672035      -0.28417996       0.00000000
Si       2.92477176       2.44167552       0.05842479       0.00000000
