10
Lattice="16.28999089631971 0.0 0.0 0.0 16.28999089631971 0.0 0.0 0.0 34.25627252547053" Properties=species:S:1:pos:R:3:initial_magmoms:R:1 pbc="T T T"
Si       1.35671265       1.35742941       1.35692597       0.00000000
Si       1.35705474      -1.35725022      -1.35709725       0.00000000
Si      -1.35821133       1.35773892      -1.35720002       0.00000000
Si      -1.35868374      -1.35809730       1.35713151       0.00000000
Si      -2.71093293      -0.00283446       2.71700352       0.00000000
Si      -0.00070047      -2.71366965      -2.71463983       0.00000000
Si       0.00237834       2.71472850       2.71364640       0.00000000
Si       2.71383255       0.00136836      -2.71457132       0.00000000
Si       0.00110772      -2.71280628       2.71614711       0.00000000
Si       2.71464705      -2.71440270      -0.00034256       0.00000000
