10
Lattice="16.28999089631971 0.0 0.0 0.0 16.28999089631971 0.0 0.0 0.0 34.25627252547053" Properties=species:S:1:pos:R:3:initial_magmoms:R:1 pbc="T T T"
Si      -1.35773892      -1.35632169       1.35805643       0.00000000
Si       1.35993807      -1.35641943      -1.35668618       0.00000000
Si       1.35782037       1.35874890       1.35812494       0.00000000
Si      -1.35853713       1.35873261      -1.35904986       0.00000000
Si       2.71161711      -0.00037467      -2.69266442       0.00000000
Si      -2.71244790      -0.00746082      -2.70626074       0.00000000
Si       0.00140094       2.72214045      -2.70077974       0.00000000
Si       2.71430496      -2.71269225       0.00068513       0.00000000
Si       0.00047241      -2.71406061       2.71525645       0.00000000
Si      -2.71518462       0.00164529       2.71505091       0.00000000
