10
Lattice="16.28999089631971 0.0 0.0 0.0 16.28999089631971 0.0 0.0 0.0 34.25627252547053" Properties=species:S:1:pos:R:3:initial_magmoms:R:1 pbc="T T T"
Si       1.33762077       1.34980569       1.35781663       0.00000000
Si       1.35433431      -1.35729909      -1.35672043       0.00000000
Si      -1.35933534       1.35658233      -1.35641212       0.00000000
Si      -1.35071793      -1.36182771       1.37932958       0.00000000
Si       2.62985760      -0.03358998       2.75513077       0.00000000
Si       2.70998811      -2.71432125       0.00411076       0.00000000
Si      -0.04403187       2.68087788       2.74389471       0.00000000
Si       2.71246419       0.00052128      -2.71364640       0.00000000
Si      -0.00237834      -2.71472850      -2.71364640       0.00000000
Si      -0.00257382       2.71541268      -2.71368066       0.00000000
