10
Lattice="16.28999089631971 0.0 0.0 0.0 16.28999089631971 0.0 0.0 0.0 34.25627252547053" Properties=species:S:1:pos:R:3:initial_magmoms:R:1 pbc="T T T"
Si      -1.33762077      -1.34980569      -1.35781663       0.00000000
Si       1.29223683      -1.38339567       1.39731414       0.00000000
Si      -1.38165264       1.33107219       1.38607807       0.00000000
Si       1.37909511       1.36418976      -1.35750833       0.00000000
Si       1.96543737       0.41225103       2.87876173       0.00000000
Si       0.34735167       2.31533028       2.73098008       0.00000000
Si      -2.55204027      -0.21642894       2.69381201       0.00000000
Si      -2.68833870      -2.71163340       0.02151295       0.00000000
Si      -2.69695611       0.00677664      -2.71422876       0.00000000
Si       0.01671354      -2.70710478      -2.71453706       0.00000000
