10
Lattice="16.28999089631971 0.0 0.0 0.0 16.28999089631971 0.0 0.0 0.0 34.25627252547053" Properties=species:S:1:pos:R:3:initial_magmoms:R:1 pbc="T T T"
Si       0.04041549      -2.35473579       0.14103315       0.00000000
Si       0.01894527       1.15598727       2.08545452       0.00000000
Si      -1.89221382       0.69784731      -1.30345190       0.00000000
Si       2.11825386       0.09273897      -1.22147659       0.00000000
Si       1.87929585      -2.25715869      -1.28190469       0.00000000
Si       0.36145881      -2.37174255       2.45853980       0.00000000
Si       1.50021126      -0.42599979       3.06542426       0.00000000
Si      -3.79446228      -0.10314828      -0.06101046       0.00000000
Si       1.30774491       3.08715048       1.80170966       0.00000000
Si       3.89793636       0.65836035       0.17268597       0.00000000
