10
Lattice="16.28999089631971 0.0 0.0 0.0 16.28999089631971 0.0 0.0 0.0 34.25627252547053" Properties=species:S:1:pos:R:3:initial_magmoms:R:1 pbc="T T T"
Si       0.54022527       1.76780709      -1.47874134       0.00000000
Si       0.90868878      -0.14113656       2.21117511       0.00000000
Si       0.79226415      -1.91252745      -1.23199327       0.00000000
Si      -2.42098722      -0.01881495       0.11496411       0.00000000
Si      -1.45604907       1.70452044      -2.89023758       0.00000000
Si       2.77081497       1.06741854      -2.17404129       0.00000000
Si       0.46507950      -3.68481429       0.26209489       0.00000000
Si      -3.19788990       1.72993284      -1.25384879       0.00000000
Si      -3.18489048      -2.04918426      -0.80704398       0.00000000
Si       0.22757130       1.77914493       3.44762171       0.00000000
