10
Lattice="16.28999089631971 0.0 0.0 0.0 16.28999089631971 0.0 0.0 0.0 34.25627252547053" Properties=species:S:1:pos:R:3:initial_magmoms:R:1 pbc="T T T"
Si       2.28723003       0.47446254       0.22239185       0.00000000
Si      -0.68111748       1.92028149       1.23644659       0.00000000
Si      -0.90868878       0.14113656      -2.21117511       0.00000000
Si      -0.58684725      -2.03304087       1.13141680       0.00000000
Si      -0.50810139       0.88050708       3.36307718       0.00000000
Si      -0.43891776      -1.49553603       3.41511249       0.00000000
Si       2.47899591       2.80280853      -0.36253433       0.00000000
Si      -0.11642463      -1.77139089      -3.44316839       0.00000000
Si      -2.75722911      -2.70687672       0.61054989       0.00000000
Si      -2.92159521       2.50447347       0.82715242       0.00000000
