10
Lattice="16.28999089631971 0.0 0.0 0.0 16.28999089631971 0.0 0.0 0.0 34.25627252547053" Properties=species:S:1:pos:R:3:initial_magmoms:R:1 pbc="T T T"
Si      -2.17038186      -0.67383585      -0.52086691       0.00000000
Si       0.14792949       0.53750484       2.28369568       0.00000000
Si       1.11858543      -1.89923481      -0.86788315       0.00000000
Si       0.58684725       2.03304087      -1.13141680       0.00000000
Si       0.14323797      -1.51063686      -3.08049703       0.00000000
Si       0.07874586       2.91354795       2.23166038       0.00000000
Si      -2.20190301      -1.32621777      -2.77219040       0.00000000
Si      -3.76541721       0.78071454       0.39709893       0.00000000
Si      -1.77666885      -0.21330126       3.45046498       0.00000000
Si       3.39159429      -1.90534356      -0.08252341       0.00000000
