10
Lattice="16.28999089631971 0.0 0.0 0.0 16.28999089631971 0.0 0.0 0.0 34.25627252547053" Properties=species:S:1:pos:R:3:initial_magmoms:R:1 pbc="T T T"
Si      -1.37458278       1.27566080      -1.36947405       0.00000000
Si       1.33035543       1.37930103       1.34766307       0.00000000
Si      -1.38844557      -1.33504695       1.35006101       0.00000000
Si       1.36091547      -1.39357692      -1.40121935       0.00000000
Si       2.49823440       0.16574816      -2.71955763       0.00000000
Si      -2.57240277      -0.22200012      -2.75937311       0.00000000
Si       2.68644906      -2.68581375       0.00353525       0.00000000
Si       2.68457571       0.02148668       2.70551396       0.00000000
Si      -0.03067407      -2.69042382       2.70472606       0.00000000
Si      -2.73566115      -2.68439652      -0.01031114       0.00000000
