10
Lattice="16.28999089631971 0.0 0.0 0.0 16.28999089631971 0.0 0.0 0.0 34.25627252547053" Properties=species:S:1:pos:R:3:initial_magmoms:R:1 pbc="T T T"
Si      -1.35777150       1.35537687      -1.35466505       0.00000000
Si       1.35817875       1.35624024       1.35767961       0.00000000
Si      -1.35650088      -1.35887922       1.35750833       0.00000000
Si       1.35718506      -1.35879777      -1.35946093       0.00000000
Si       0.03067407       2.69042382      -2.70472606       0.00000000
Si       2.71712313       0.00461007      -2.70119081       0.00000000
Si      -2.70498708       0.00602730      -2.71503721       0.00000000
Si      -2.71178001       2.71380918      -0.00089066       0.00000000
Si       2.71524978       2.71191050       0.00078789       0.00000000
Si       0.00089595       2.71370448       2.71511942       0.00000000
