10
Lattice="16.28999089631971 0.0 0.0 0.0 16.28999089631971 0.0 0.0 0.0 34.25627252547053" Properties=species:S:1:pos:R:3:initial_magmoms:R:1 pbc="T T T"
Si      -1.17038763      -1.54750113       1.30773393       0.00000000
Si      -1.33095816       1.40998095      -1.35487059       0.00000000
Si       1.38165264      -1.33107219      -1.38607807       0.00000000
Si       1.72900431       0.98425809       1.34490201       0.00000000
Si       3.34709001      -0.91882116       1.49268365       0.00000000
Si       2.67388947      -2.71446786       0.01123606       0.00000000
Si      -2.67401979       0.03468141      -2.73766006       0.00000000
Si       2.77449651       2.63868678       0.04542384       0.00000000
Si       0.04403187      -2.68087788      -2.74389471       0.00000000
Si      -2.58809004       2.86023047       0.25274292       0.00000000
