10
Lattice="16.28999089631971 0.0 0.0 0.0 16.28999089631971 0.0 0.0 0.0 34.25627252547053" Properties=species:S:1:pos:R:3:initial_magmoms:R:1 pbc="T T T"
Si       0.31242591       2.26887120       0.57458078       0.00000000
Si      -0.54022527      -1.76780709       1.47874134       0.00000000
Si       2.23058970      -0.70038855      -0.69529995       0.00000000
Si      -1.99627434      -0.06328665      -1.41149624       0.00000000
Si       2.67455736       2.13203520       1.23997499       0.00000000
Si       0.26195949       3.30509669      -1.61473882       0.00000000
Si       0.25203888      -3.68033454       0.24674807       0.00000000
Si      -3.73811517      -0.03787425       0.22489255       0.00000000
Si      -1.58281785      -1.95952410      -2.84176493       0.00000000
Si      -2.96121249      -1.78662204       1.59370546       0.00000000
