10
Lattice="16.28999089631971 0.0 0.0 0.0 16.28999089631971 0.0 0.0 0.0 34.25627252547053" Properties=species:S:1:pos:R:3:initial_magmoms:R:1 pbc="T T T"
Si       1.35770216       1.35663120       1.35833048       0.00000000
Si      -1.35776658       1.35576783      -1.36007755       0.00000000
Si      -1.35794577      -1.35837423       1.35809068       0.00000000
Si       1.35917803      -1.36275624      -1.35521315       0.00000000
Si       2.71333967      -2.71448415       0.00226092       0.00000000
Si       2.71343741       2.71476108       0.00147302       0.00000000
Si       2.71366547       0.00009774       2.71556475       0.00000000
Si      -0.00113793       2.71463076       2.71580455       0.00000000
Si      -0.00064122      -2.71529865       2.71577029       0.00000000
Si      -2.71596162       0.00013032       2.71549624       0.00000000
