10
Lattice="16.28999089631971 0.0 0.0 0.0 16.28999089631971 0.0 0.0 0.0 34.25627252547053" Properties=species:S:1:pos:R:3:initial_magmoms:R:1 pbc="T T T"
Si       1.35679410      -1.35690785      -1.35692597       0.00000000
Si      -1.35777150       1.35785064      -1.35696023       0.00000000
Si       1.35762489       1.35772521       1.35747407       0.00000000
Si      -1.35764118      -1.35782009       1.35767961       0.00000000
Si       2.71364642       0.00005477      -2.71450281       0.00000000
Si      -0.00040725      -2.71471193      -2.71354363       0.00000000
Si      -0.00219915       2.71392147      -2.71484537       0.00000000
Si       2.71430559      -2.71454903       0.00020554       0.00000000
Si      -2.71521720      -2.71448387       0.00017128       0.00000000
Si      -2.71596654      -0.00112356      -2.71385194       0.00000000
