10
Lattice="16.28999089631971 0.0 0.0 0.0 16.28999089631971 0.0 0.0 0.0 34.25627252547053" Properties=species:S:1:pos:R:3:initial_magmoms:R:1 pbc="T T T"
Si      -1.35557235      -1.35607082       1.35788515       0.00000000
Si       1.35984033       1.35853713       1.35730279       0.00000000
Si      -1.35641943       1.35967743      -1.36011180       0.00000000
Si       1.36301688      -1.35511786      -1.35853602       0.00000000
Si       0.00219915      -2.71392147       2.71484537       0.00000000
Si      -2.71376739      -2.71504503       0.00099343       0.00000000
Si      -2.71389771       0.00197109       2.71515368       0.00000000
Si       2.71584557      -2.71386670       0.00034256       0.00000000
Si      -0.01917333      -2.71790818      -2.71311885       0.00000000
Si      -2.71352304       2.71777473       0.00041108       0.00000000
