10
Lattice="16.28999089631971 0.0 0.0 0.0 16.28999089631971 0.0 0.0 0.0 34.25627252547053" Properties=species:S:1:pos:R:3:initial_magmoms:R:1 pbc="T T T"
Si       1.35827649       1.34993275      -1.38902411       0.00000000
Si      -1.35775521      -1.36636677      -1.38600956       0.00000000
Si      -1.41732774       1.36444714       1.46147617       0.00000000
Si       1.37481084      -1.47559122       1.39604665       0.00000000
Si       2.70868491       2.70421819      -0.00709105       0.00000000
Si      -2.72904741       2.69146312      -0.02839847       0.00000000
Si      -2.73064383      -2.70429705      -0.00424778       0.00000000
Si      -0.00205254       2.70755764      -2.74869059       0.00000000
Si       2.71461447      -0.00753413      -2.74964976       0.00000000
Si      -2.71779102      -0.00664958      -2.74975253       0.00000000
