10
Lattice="16.28999089631971 0.0 0.0 0.0 16.28999089631971 0.0 0.0 0.0 34.25627252547053" Properties=species:S:1:pos:R:3:initial_magmoms:R:1 pbc="T T T"
Si       0.06136443       0.84905924       2.20881143       0.00000000
Si       0.76945393       1.98056589      -1.12895035       0.00000000
Si       1.78196540      -1.62997318       0.02045101       0.00000000
Si      -2.01176613      -0.81381160      -1.06937866       0.00000000
Si      -0.65671506      -2.08474111      -2.48779467       0.00000000
Si       2.06422712       0.65930843      -2.51156854       0.00000000
Si       0.66727817      -3.53813491      -0.92296727       0.00000000
Si       3.48642557      -0.64197652      -1.16560458       0.00000000
Si      -0.16467561       3.32198223       1.78173824       0.00000000
Si      -1.61608203      -0.51569905       3.40510965       0.00000000
