10
Lattice="16.28999089631971 0.0 0.0 0.0 16.28999089631971 0.0 0.0 0.0 34.25627252547053" Properties=species:S:1:pos:R:3:initial_magmoms:R:1 pbc="T T T"
Si      -1.95444162      -1.19623986      -0.34845500       0.00000000
Si       1.71695690      -1.55847082      -0.27141260       0.00000000
Si       0.46345050       1.62738729      -1.64210960       0.00000000
Si      -0.40749435       1.08483255       2.11272253       0.00000000
Si      -1.33310844      -2.71889939       1.47922093       0.00000000
Si      -1.24310619       3.11616297      -1.11031493       0.00000000
Si      -1.16416485       3.14382339       1.20955540       0.00000000
Si      -3.58050942       0.40633776       0.18090748       0.00000000
Si       0.03034827      -1.27489124      -3.47441013       0.00000000
Si       2.32142993      -1.34223084      -2.57624442       0.00000000
