10
Lattice="16.28999089631971 0.0 0.0 0.0 16.28999089631971 0.0 0.0 0.0 34.25627252547053" Properties=species:S:1:pos:R:3:initial_magmoms:R:1 pbc="T T T"
Si      -1.56102183       1.36881123       1.07783996       0.00000000
Si      -0.95570172      -1.92518056       1.02179667       0.00000000
Si      -1.06223832      -0.22787006      -2.15153491       0.00000000
Si       2.43300991      -0.00530565       0.36791257       0.00000000
Si       1.02094465      -1.12156228      -3.12139904       0.00000000
Si      -3.52452069       0.82538824      -0.11205233       0.00000000
Si       2.56793021       0.36693877       2.72248452       0.00000000
Si      -3.38978610      -1.16096779      -1.48007734       0.00000000
Si      -0.13662423       3.57586188      -1.51803331       0.00000000
Si      -1.22116356       1.61329155       3.33666558       0.00000000
