10
Lattice="16.28999089631971 0.0 0.0 0.0 16.28999089631971 0.0 0.0 0.0 34.25627252547053" Properties=species:S:1:pos:R:3:initial_magmoms:R:1 pbc="T T T"
Si      -1.71896967      -0.95152008       1.42416563       0.00000000
Si       1.04593203       1.73768688       1.36968785       0.00000000
Si      -0.54325521       0.48436686      -2.36601355       0.00000000
Si       1.64887380      -1.96570941       0.23777193       0.00000000
Si      -1.86807204      -2.51148536      -1.73086765       0.00000000
Si       2.34268606       0.38698524       2.84220140       0.00000000
Si      -0.39812760      -2.33276371       2.85686651       0.00000000
Si      -2.73492810       1.68345747      -2.09528608       0.00000000
Si       0.34142211      -1.99161377      -3.30895224       0.00000000
Si      -3.27906297      -2.18563907       0.14590721       0.00000000
