10
Lattice="16.28999089631971 0.0 0.0 0.0 16.28999089631971 0.0 0.0 0.0 34.25627252547053" Properties=species:S:1:pos:R:3:initial_magmoms:R:1 pbc="T T T"
Si      -1.35705474      -1.35692442      -1.35812494       0.00000000
Si      -1.35487188       1.35974259       1.35791940       0.00000000
Si       1.35866745       1.35814617      -1.35857027       0.00000000
Si       1.36032903      -1.35762489       1.35966647       0.00000000
Si      -2.71357191       0.00001629      -2.71542773       0.00000000
Si      -2.71466334       2.71445157      -0.00109620       0.00000000
Si      -2.71573848      -2.71420722      -0.00106195       0.00000000
Si       2.71595025       2.71438641      -0.00089066       0.00000000
Si       0.00127062      -2.71496633      -2.71539347       0.00000000
Si       0.00107514       2.71529865      -2.71532496       0.00000000
