10
Lattice="16.28999089631971 0.0 0.0 0.0 16.28999089631971 0.0 0.0 0.0 34.25627252547053" Properties=species:S:1:pos:R:3:initial_magmoms:R:1 pbc="T T T"
Si      -1.18330560      -1.53823212      -1.35788515       0.00000000
Si       1.62407061       1.11505050      -1.35000620       0.00000000
Si      -1.65806136       1.86090444      -0.15425608       0.00000000
Si      -1.27560474       2.22733170       2.24430095       0.00000000
Si       0.77297679      -2.96706060       1.49477329       0.00000000
Si       0.50360535       1.13445189       3.48252887       0.00000000
Si      -2.45687409      -0.19285731      -2.78897599       0.00000000
Si       0.27820062       2.52237618      -2.77030631       0.00000000
Si       2.48563313       1.83997179       2.31284779       0.00000000
Si      -3.03215544      -2.41248384      -0.09547228       0.00000000
