10
Lattice="16.28999089631971 0.0 0.0 0.0 16.28999089631971 0.0 0.0 0.0 34.25627252547053" Properties=species:S:1:pos:R:3:initial_magmoms:R:1 pbc="T T T"
Si       1.86004011       1.26447867       0.56372154       0.00000000
Si      -0.07894134      -0.02766042      -2.31987033       0.00000000
Si       0.75667050      -2.05899084       0.90316713       0.00000000
Si      -1.91487321       1.24400214       0.68142615       0.00000000
Si      -0.77936247      -2.06589780       2.71806546       0.00000000
Si       1.16416485      -3.14382339      -1.20955540       0.00000000
Si       1.36607940       1.74474045       2.83306383       0.00000000
Si      -2.23552557      -0.99414612      -2.65499963       0.00000000
Si       1.66698828       3.03342606      -1.03269017       0.00000000
Si       1.62761535      -1.51643610      -2.85166500       0.00000000
