10
Lattice="16.28999089631971 0.0 0.0 0.0 16.28999089631971 0.0 0.0 0.0 34.25627252547053" Properties=species:S:1:pos:R:3:initial_magmoms:R:1 pbc="T T T"
Si       1.35700587      -1.35725022      -1.35661766       0.00000000
Si       1.35635427       1.35816246       1.35696023       0.00000000
Si      -1.35749457       1.35755973      -1.35713151       0.00000000
Si      -1.35812988      -1.35782037       1.35692597       0.00000000
Si      -2.71246419      -0.00052128       2.71364640       0.00000000
Si       0.00425169       2.71347417       2.71395471       0.00000000
Si      -0.00022806       2.71466334      -2.71374917       0.00000000
Si      -0.00100998      -2.71388142      -2.71457132       0.00000000
Si       2.71400552      -0.00109143      -2.71491388       0.00000000
Si       2.71448478       2.71482624       0.00000000       0.00000000
