10
Lattice="16.28999089631971 0.0 0.0 0.0 16.28999089631971 0.0 0.0 0.0 34.25627252547053" Properties=species:S:1:pos:R:3:initial_magmoms:R:1 pbc="T T T"
Si       1.77968250       0.56562138       1.39416256       0.00000000
Si      -0.23895801      -2.34989766      -0.06042810       0.00000000
Si      -2.11825386      -0.09273897       1.22147659       0.00000000
Si       0.53512650       1.05239916      -2.21381285       0.00000000
Si      -2.07783837      -2.44747476       1.36250974       0.00000000
Si      -0.62141463      -2.71632492      -2.45898513       0.00000000
Si       1.40330205       2.82462084       2.05174633       0.00000000
Si       3.74556037      -0.32448051       0.24435013       0.00000000
Si      -0.13807404      -0.74324754      -3.69526044       0.00000000
Si       1.61590284      -0.41793624       3.53706488       0.00000000
