10
Lattice="16.28999089631971 0.0 0.0 0.0 16.28999089631971 0.0 0.0 0.0 34.25627252547053" Properties=species:S:1:pos:R:3:initial_magmoms:R:1 pbc="T T T"
Si      -1.48312305       1.14644133       1.35274670       0.00000000
Si      -0.42696090       0.29854683      -2.27489182       0.00000000
Si       0.11280825      -2.39405985       0.30498376       0.00000000
Si       1.74457755       0.21947517       1.80225776       0.00000000
Si       1.83172905       1.93725567       0.34269994       0.00000000
Si      -0.14263524       0.30309174       3.23461608       0.00000000
Si       1.80698454       0.39934935      -3.02472779       0.00000000
Si      -1.56571335      -1.64719593      -2.88177628       0.00000000
Si      -1.29135717       3.47478732       0.76782052       0.00000000
Si       3.27678956       1.40181966      -1.42437661       0.00000000
