10
Lattice="16.28999089631971 0.0 0.0 0.0 16.28999089631971 0.0 0.0 0.0 34.25627252547053" Properties=species:S:1:pos:R:3:initial_magmoms:R:1 pbc="T T T"
Si       1.91008788      -0.86942988      -1.05166815       0.00000000
Si      -0.32781996      -1.82218311       1.51632049       0.00000000
Si       0.48723390       1.74843828       1.57599495       0.00000000
Si      -1.85295492       0.54656208      -1.46140766       0.00000000
Si      -1.63895319       1.28241396       2.60686954       0.00000000
Si       1.55696776      -1.50715080       2.85125392       0.00000000
Si      -2.22900957      -1.06908012       2.60241622       0.00000000
Si       3.03648599      -1.87675461       0.97421468       0.00000000
Si       3.00775858       0.96666489      -2.06709315       0.00000000
Si      -3.72894390       0.64480707       0.01616897       0.00000000
