10
Lattice="16.28999089631971 0.0 0.0 0.0 16.28999089631971 0.0 0.0 0.0 34.25627252547053" Properties=species:S:1:pos:R:3:initial_magmoms:R:1 pbc="T T T"
Si       1.55296058      -0.77037039       1.58068807       0.00000000
Si       0.79441443       1.86662223      -1.25535606       0.00000000
Si      -0.48723390      -1.74843828      -1.57599495       0.00000000
Si      -2.12618709      -0.46602432       1.03087459       0.00000000
Si       0.58246524       0.94607433       3.20097641       0.00000000
Si       1.06973386      -3.25558908       1.27525897       0.00000000
Si      -0.81505386      -3.57062139      -0.05967446       0.00000000
Si      -1.10754081       2.58154146      -2.41928209       0.00000000
Si      -2.73665484       2.63262690      -0.69255945       0.00000000
Si       1.47273233       3.56382846       0.29244596       0.00000000
