10
Lattice="16.28999089631971 0.0 0.0 0.0 16.28999089631971 0.0 0.0 0.0 34.25627252547053" Properties=species:S:1:pos:R:3:initial_magmoms:R:1 pbc="T T T"
Si       1.35570267      -1.35697329      -1.35565849       0.00000000
Si      -1.35726651      -1.35710361       1.35661766       0.00000000
Si       1.35720135       1.35780408       1.35661766       0.00000000
Si      -1.35853713       1.36107837      -1.35439100       0.00000000
Si      -0.00346977      -2.71622718      -2.69417170       0.00000000
Si      -2.71368594       0.00628794      -2.70228701       0.00000000
Si      -0.02096523       2.71072522      -2.71442059       0.00000000
Si       2.72446186       0.00496845      -2.70353052       0.00000000
Si       0.00040725       2.71471193       2.71354363       0.00000000
Si       0.00022806      -2.71466334       2.71374917       0.00000000
