10
Lattice="16.28999089631971 0.0 0.0 0.0 16.28999089631971 0.0 0.0 0.0 34.25627252547053" Properties=species:S:1:pos:R:3:initial_magmoms:R:1 pbc="T T T"
Si      -1.35679410       1.35690785       1.35692597       0.00000000
Si       1.35685232       1.35696262      -1.35757684       0.00000000
Si      -1.35720135      -1.35780408      -1.35661766       0.00000000
Si       1.35751149      -1.35764118       1.35713151       0.00000000
Si      -2.71573848       0.00327429      -2.71100867       0.00000000
Si      -0.00149868      -2.71477737      -2.71227615       0.00000000
Si      -0.00061902      -2.71430496       2.71409173       0.00000000
Si       2.71480573       0.00086337       2.71385194       0.00000000
Si       0.00083079       2.71463306       2.71440004       0.00000000
Si      -2.71443528      -0.00091224       2.71460558       0.00000000
