10
Lattice="16.28999089631971 0.0 0.0 0.0 16.28999089631971 0.0 0.0 0.0 34.25627252547053" Properties=species:S:1:pos:R:3:initial_magmoms:R:1 pbc="T T T"
Si      -1.35505107       1.27092951       1.41841601       0.00000000
Si      -1.36879983      -1.33463970      -1.37059423       0.00000000
Si       1.34086248       1.38052162      -1.36675753       0.00000000
Si       1.32399323      -1.45339380       1.56482740       0.00000000
Si       0.65671506       2.08474111       2.48779467       0.00000000
Si       2.43868046       0.45476793       2.50824568       0.00000000
Si      -2.40054327      -0.38349918       2.71789418       0.00000000
Si      -0.78245757      -2.28657843       2.86567582       0.00000000
Si       2.70124920      -2.70614367       0.02497284       0.00000000
Si      -0.01669725      -2.68995141      -2.72758871       0.00000000
