10
Lattice="16.28999089631971 0.0 0.0 0.0 16.28999089631971 0.0 0.0 0.0 34.25627252547053" Properties=species:S:1:pos:R:3:initial_magmoms:R:1 pbc="T T T"
Si       1.14303672      -0.49370103       1.95322524       0.00000000
Si       0.40345443       2.32024986      -0.17052782       0.00000000
Si      -2.23308926      -0.79970868      -0.09112174       0.00000000
Si       0.75919545      -1.55504340      -1.67232365       0.00000000
Si       2.21141637       1.84010211      -1.65269479       0.00000000
Si      -0.10313199       0.59350986       3.65007639       0.00000000
Si       3.12595326      -0.36352764      -2.08997635       0.00000000
Si       3.28155534       0.76030317       1.78567772       0.00000000
Si       0.93445956      -2.93876487       2.25872285       0.00000000
Si       3.10811571      -2.32209063      -0.41069868       0.00000000
