10
Lattice="16.28999089631971 0.0 0.0 0.0 16.28999089631971 0.0 0.0 0.0 34.25627252547053" Properties=species:S:1:pos:R:3:initial_magmoms:R:1 pbc="T T T"
Si      -1.94358596      -1.10640051      -0.88905354       0.00000000
Si       0.93931398      -0.38864682      -2.22134923       0.00000000
Si      -0.61351398       2.29019481       0.59674460       0.00000000
Si      -0.11401371      -0.05315427       2.64472274       0.00000000
Si      -3.42310420      -0.73679670       0.98798571       0.00000000
Si      -2.93987748       1.74842199       1.29341480       0.00000000
Si       1.84480992      -1.68256152       2.67199075       0.00000000
Si       0.03086955       3.37217661      -1.45085672       0.00000000
Si      -1.15442343      -3.29869242      -1.21993506       0.00000000
Si       0.51816861      -2.70747945      -2.76400315       0.00000000
