10
Lattice="16.28999089631971 0.0 0.0 0.0 16.28999089631971 0.0 0.0 0.0 34.25627252547053" Properties=species:S:1:pos:R:3:initial_magmoms:R:1 pbc="T T T"
Si       1.38347712      -1.20541113       1.51061340       0.00000000
Si       0.95184099       1.92757941      -1.05439187       0.00000000
Si      -0.68038443      -1.87773201      -1.47926345       0.00000000
Si      -1.34161182       1.47321873       1.50330310       0.00000000
Si      -2.58002975      -2.57660559       0.07493221       0.00000000
Si       2.76468993      -2.38071834       0.02012215       0.00000000
Si      -1.17988470       0.46561707      -3.52724159       0.00000000
Si      -0.93999816       3.54924891      -0.91837384       0.00000000
Si       0.02262681      -2.57064345       2.87794643       0.00000000
Si       2.73564486       2.81502603       0.19608301       0.00000000
