10
Lattice="16.28999089631971 0.0 0.0 0.0 16.28999089631971 0.0 0.0 0.0 34.25627252547053" Properties=species:S:1:pos:R:3:initial_magmoms:R:1 pbc="T T T"
Si      -0.99404838      -1.86900057       1.19612694       0.00000000
Si       1.32048369      -1.31357673      -1.56842431       0.00000000
Si       1.63108512       1.19263977       1.37761677       0.00000000
Si      -1.39191371       1.36583505      -1.55393390       0.00000000
Si       2.70226665      -2.59335171      -0.14171828       0.00000000
Si      -2.76916968       2.61858492      -0.01407934       0.00000000
Si       2.70620883       2.73735531      -0.07848116       0.00000000
Si      -2.75002964      -2.72917773      -0.15415331       0.00000000
Si       0.83365704      -3.63925116       1.13432859       0.00000000
Si       2.67367770       0.02445129      -2.94754836       0.00000000
