10
Lattice="16.28999089631971 0.0 0.0 0.0 16.28999089631971 0.0 0.0 0.0 34.25627252547053" Properties=species:S:1:pos:R:3:initial_magmoms:R:1 pbc="T T T"
Si      -1.87412215       0.08767278      -1.43314622       0.00000000
Si      -0.76637934      -1.85082093       1.34202448       0.00000000
Si       0.54843543       2.05421787       1.27248421       0.00000000
Si       1.75563846      -1.81483632      -0.81454610       0.00000000
Si      -2.09740266      -2.32510428      -1.66937761       0.00000000
Si      -0.51437304      -3.58282260      -0.30748447       0.00000000
Si       3.09487194      -0.43139178      -2.31952777       0.00000000
Si       0.31434813      -1.83757716       3.48938013       0.00000000
Si      -3.84000002       0.97777467      -0.28333379       0.00000000
Si      -1.24307361       2.81163771       2.71004949       0.00000000
