10
Lattice="16.28999089631971 0.0 0.0 0.0 16.28999089631971 0.0 0.0 0.0 34.25627252547053" Properties=species:S:1:pos:R:3:initial_magmoms:R:1 pbc="T T T"
Si       2.30094621       0.19637595      -0.49294804       0.00000000
Si       0.19499130      -2.09748411       1.09270719       0.00000000
Si      -1.27327527       1.59754401       1.26481080       0.00000000
Si      -1.08072747      -0.01324377      -2.14735564       0.00000000
Si      -1.33530759      -3.47198544       0.02373961       0.00000000
Si      -2.56356382       0.26534781       2.75143109       0.00000000
Si       2.21990346      -3.05833347       0.45026470       0.00000000
Si       3.06484947       2.22674526       0.42906005       0.00000000
Si       2.67542073      -1.02301200      -2.52592192       0.00000000
Si      -3.23284009      -2.08428921      -0.30207198       0.00000000
