10
Lattice="16.28999089631971 0.0 0.0 0.0 16.28999089631971 0.0 0.0 0.0 34.25627252547053" Properties=species:S:1:pos:R:3:initial_magmoms:R:1 pbc="T T T"
Si      -2.18116747       0.73489077       0.13486702       0.00000000
Si       0.30121839      -1.79398512      -1.45174738       0.00000000
Si       1.62556281       1.63812240      -0.73144034       0.00000000
Si       0.73045989      -1.39077504       1.84387916       0.00000000
Si       1.97149725       2.14553961       1.55246088       0.00000000
Si       2.64137463      -1.92002085      -0.79022414       0.00000000
Si      -0.17798454       2.37004839       2.61437167       0.00000000
Si       3.22059816       0.18357201      -1.64940619       0.00000000
Si      -3.27883817      -1.10120400       1.15029202       0.00000000
Si      -1.98881352       2.82784626       1.19143382       0.00000000
