10
Lattice="16.28999089631971 0.0 0.0 0.0 16.28999089631971 0.0 0.0 0.0 34.25627252547053" Properties=species:S:1:pos:R:3:initial_magmoms:R:1 pbc="T T T"
Si      -1.47381340       1.23864273      -1.28851615       0.00000000
Si       1.34881747       1.35324288       1.34273359       0.00000000
Si       1.18392684      -1.51180974      -1.34348037       0.00000000
Si      -1.36875919      -1.36194174       1.34787203       0.00000000
Si      -2.30053090      -0.57603069      -2.57859166       0.00000000
Si      -0.43726441      -2.58351255      -2.74392010       0.00000000
Si       2.70516523      -0.00509877       2.70270837       0.00000000
Si      -0.01040819       2.70979825       2.70257134       0.00000000
Si       2.69465818       2.71923691      -0.04229967       0.00000000
Si      -0.01022828      -2.72072322       2.70236580       0.00000000
