10
Lattice="16.28999089631971 0.0 0.0 0.0 16.28999089631971 0.0 0.0 0.0 34.25627252547053" Properties=species:S:1:pos:R:3:initial_magmoms:R:1 pbc="T T T"
Si       1.35742941       1.35711990      -1.35733704       0.00000000
Si      -1.35748484       1.35741312       1.35723428       0.00000000
Si       1.35809730      -1.35720135       1.35743981       0.00000000
Si      -1.35796410      -1.35850455      -1.35767961       0.00000000
Si       0.00322379      -2.71410948      -2.71296128       0.00000000
Si      -2.71649501       0.00027693      -2.71217338       0.00000000
Si      -0.00036490      -2.71476108       2.71446855       0.00000000
Si       2.71595025      -0.00058644       2.71330384       0.00000000
Si      -2.71496375      -2.71466334       0.00061661       0.00000000
Si      -2.71561535       0.00074934       2.71419450       0.00000000
