10
Lattice="10.86 0.0 0.0 0.0 10.86 0.0 0.0 0.0 10.86" Properties=species:S:1:pos:R:3:initial_magmoms:R:1 pbc="T T T"
Si       1.37737380       1.32159684       1.20730620       0.00000000
Si      -1.60334868       0.95245458      -1.30764174       0.00000000
Si      -1.33762620      -1.39340316       1.20730620       0.00000000
Si       1.37737380      -1.39340316      -1.50769380       0.00000000
Si      -2.28706170       2.67248310      -0.07451046       0.00000000
Si       0.01987380       2.67909684       2.56480620       0.00000000
Si      -2.69512620      -0.03590316       2.56480620       0.00000000
Si       2.73487380      -0.03590316       2.56480620       0.00000000
Si       0.01987380      -2.75090316       2.56480620       0.00000000
Si       2.66160138       2.76410892      -0.25029042       0.00000000
