10
Lattice="10.86 0.0 0.0 0.0 10.86 0.0 0.0 0.0 10.86" Properties=species:S:1:pos:R:3:initial_magmoms:R:1 pbc="T T T"
Si      -1.42941492      -1.14803232       1.24830270       0.00000000
Si       1.28558508      -1.14803232      -1.46669730       0.00000000
Si       1.22425866       1.57105104       1.18456536       0.00000000
Si      -1.42941492       1.56696768      -1.46669730       0.00000000
Si       2.77556622      -2.44354344      -0.05527740       0.00000000
Si      -2.78691492      -2.50553232      -0.10919730       0.00000000
Si      -0.14487240      -2.65094772       2.67860814       0.00000000
Si      -0.07191492      -2.50553232      -2.82419730       0.00000000
Si      -2.78691492       0.20946768       2.60580270       0.00000000
Si       0.08524014       2.81688852       2.59594182       0.00000000
