10
Lattice="16.28999089631971 0.0 0.0 0.0 16.28999089631971 0.0 0.0 0.0 34.28971787722196" Properties=species:S:1:pos:R:3:initial_magmoms:R:1 pbc="T T T"
Si      -1.56588018      -1.24313567      -1.24773701       0.00000000
Si       1.35940376      -1.35767932       1.37887605       0.00000000
Si       1.74901169       1.03241296      -1.24022790       0.00000000
Si      -1.36548060       1.38896848       1.37003959       0.00000000
Si       0.39449819      -1.89782314      -2.29624108       0.00000000
Si       2.68322690       2.72890243       0.03899429       0.00000000
Si      -0.00725882      -2.69903050       2.75345217       0.00000000
Si       2.70621209       0.01721853       2.75197771       0.00000000
Si       2.83941542      -2.61728728      -0.11911569       0.00000000
Si      -2.72102037       0.01426189       2.74724573       0.00000000
