10
Lattice="16.28999089631971 0.0 0.0 0.0 16.28999089631971 0.0 0.0 0.0 34.28971787722196" Properties=species:S:1:pos:R:3:initial_magmoms:R:1 pbc="T T T"
Si      -1.36768564      -1.33838637      -1.38417382       0.00000000
Si       1.35294640       1.37591693      -1.38619691       0.00000000
Si      -1.41932556       1.15618112       1.56872118       0.00000000
Si       1.35332107      -1.47948291       1.44685545       0.00000000
Si       2.70389239      -2.71079514      -0.02396853       0.00000000
Si       2.69973844       2.72057498      -0.00586355       0.00000000
Si      -2.72715192      -2.69838216       0.00394332       0.00000000
Si      -0.00889760      -2.70150984      -2.74513348       0.00000000
Si      -2.72464326       2.72676518       0.01611618       0.00000000
Si       2.70633589       0.01468869      -2.74667652       0.00000000
