10
Lattice="16.28999089631971 0.0 0.0 0.0 16.28999089631971 0.0 0.0 0.0 34.28971787722196" Properties=species:S:1:pos:R:3:initial_magmoms:R:1 pbc="T T T"
Si      -1.09737163      -0.44204544      -2.00752694       0.00000000
Si      -1.78899616      -0.88226640       1.31435991       0.00000000
Si       1.55622768      -1.84767696      -0.13324992       0.00000000
Si       0.56227704       2.37382541      -0.22953550       0.00000000
Si       0.83483155      -0.29212857      -3.33049358       0.00000000
Si       1.39655310       1.11601161       2.98769908       0.00000000
Si      -0.08785360      -3.57223410      -0.25045224       0.00000000
Si       1.28164344      -1.19633760       3.21099385       0.00000000
Si      -2.79454528       1.22943888      -2.03732473       0.00000000
Si      -0.67440178      -2.40272613       2.73097182       0.00000000
