10
Lattice="16.28999089631971 0.0 0.0 0.0 16.28999089631971 0.0 0.0 0.0 34.28971787722196" Properties=species:S:1:pos:R:3:initial_magmoms:R:1 pbc="T T T"
Si       0.69501285       0.52952274       2.15010367       0.00000000
Si      -0.11490966      -2.31234921       0.22329477       0.00000000
Si       1.88377560       1.15136091      -0.96453601       0.00000000
Si      -2.03679476       1.31805129       0.10780693       0.00000000
Si       1.06849368       2.85005672       1.50045031       0.00000000
Si      -1.28333923       2.85668675      -1.48378550       0.00000000
Si      -1.39655310      -1.11601161      -2.98769908       0.00000000
Si      -0.83427606       1.25781380      -3.21723458       0.00000000
Si       0.94714947       3.34525643      -0.78400055       0.00000000
Si      -1.35534103       0.42684687       3.31554325       0.00000000
