10
Lattice="16.28999089631971 0.0 0.0 0.0 16.28999089631971 0.0 0.0 0.0 34.28971787722196" Properties=species:S:1:pos:R:3:initial_magmoms:R:1 pbc="T T T"
Si      -0.69501285      -0.52952274      -2.15010367       0.00000000
Si      -2.05035388      -0.10267587       1.16543958       0.00000000
Si       1.84044420      -0.49207203       1.39778684       0.00000000
Si       0.37348083       2.32053398      -0.64965336       0.00000000
Si       1.77025059       1.74254360       2.22022618       0.00000000
Si       1.18876275       0.62183817      -3.11463968       0.00000000
Si      -3.01981481       1.73198768       0.11538497       0.00000000
Si      -2.73180761       0.78852855      -2.04229674       0.00000000
Si      -0.80992251      -2.84187195      -1.92680890       0.00000000
Si      -1.33497853       3.30401015       0.51763787       0.00000000
