10
Lattice="16.28999089631971 0.0 0.0 0.0 16.28999089631971 0.0 0.0 0.0 34.28971787722196" Properties=species:S:1:pos:R:3:initial_magmoms:R:1 pbc="T T T"
Si      -0.74557701      -1.97875282       1.15652425       0.00000000
Si      -1.43785314       1.26151389      -1.49863296       0.00000000
Si       1.29684690      -1.41841103      -1.50504514       0.00000000
Si       0.79408863       1.82324196       1.44064901       0.00000000
Si       2.64569148       2.74501161       0.02746608       0.00000000
Si      -1.05937128       3.49725123       1.15724434       0.00000000
Si       2.70282051      -2.79283617      -0.19305122       0.00000000
Si      -0.07343532       2.63138886      -2.87742328       0.00000000
Si      -2.97891972       2.52092637       0.07656898       0.00000000
Si       2.64065787      -0.08146629      -2.88321825       0.00000000
