10
Lattice="16.28999089631971 0.0 0.0 0.0 16.28999089631971 0.0 0.0 0.0 34.28971787722196" Properties=species:S:1:pos:R:3:initial_magmoms:R:1 pbc="T T T"
Si      -1.35580041      -1.35751086      -1.35732495       0.00000000
Si       1.35749457      -1.35695700       1.35708492       0.00000000
Si       1.35700587       1.35738054      -1.35746211       0.00000000
Si      -1.35690813       1.35742941       1.35753069       0.00000000
Si       2.71521720      -0.00234576       2.71379266       0.00000000
Si       0.00004887       2.71511946       2.71413556       0.00000000
Si      -0.00177561      -2.71334548      -2.71602149       0.00000000
Si      -2.71453302      -2.71493538      -0.00058293       0.00000000
Si       2.71498914      -2.71493050      -0.00013716       0.00000000
Si      -2.71573522      -0.00073305       2.71427271       0.00000000
