10
Lattice="16.28999089631971 0.0 0.0 0.0 16.28999089631971 0.0 0.0 0.0 34.28971787722196" Properties=species:S:1:pos:R:3:initial_magmoms:R:1 pbc="T T T"
Si      -0.79408863      -1.82324196      -1.44064901       0.00000000
Si       1.85160285       0.92176965      -1.41318293       0.00000000
Si      -1.85345991       1.67400927      -0.28340468       0.00000000
Si      -0.27681597       1.00740618       2.30423604       0.00000000
Si       0.49731741       2.17083798      -2.94257378       0.00000000
Si      -2.23194177      -0.56172807      -2.93928197       0.00000000
Si      -0.92059677       3.48447987      -1.51221169       0.00000000
Si       1.66361625       2.32143903       2.89861434       0.00000000
Si      -3.77300835       0.69768441      -1.36408003       0.00000000
Si      -2.12520969       2.62213614       2.31647748       0.00000000
