10
Lattice="16.28999089631971 0.0 0.0 0.0 16.28999089631971 0.0 0.0 0.0 34.28971787722196" Properties=species:S:1:pos:R:3:initial_magmoms:R:1 pbc="T T T"
Si      -0.31882788      -2.30718528       0.30065241       0.00000000
Si      -1.64714706       1.66951323       0.28306178       0.00000000
Si       1.68129090       0.17137080       1.65279962       0.00000000
Si       1.22622975       1.07965233      -1.74884517       0.00000000
Si      -0.62216397       2.69438229      -1.73660373       0.00000000
Si      -3.54513243       0.25936938       0.30997922       0.00000000
Si       1.76366943      -3.11906259      -0.27123182       0.00000000
Si      -0.72972684      -2.43102186       2.58476038       0.00000000
Si      -2.70417258      -1.15048125       2.15967051       0.00000000
Si       1.30890150      -1.48983453       3.38902616       0.00000000
