10
Lattice="16.28999089631971 0.0 0.0 0.0 16.28999089631971 0.0 0.0 0.0 34.28971787722196" Properties=species:S:1:pos:R:3:initial_magmoms:R:1 pbc="T T T"
Si      -1.36013355       1.35358497      -1.36137114       0.00000000
Si       1.33649676       1.35998694       1.38043623       0.00000000
Si       1.35723393      -1.36130643      -1.36051390       0.00000000
Si      -1.36668213      -1.36216980       1.37669865       0.00000000
Si       2.47676418      -0.06504597       2.89443099       0.00000000
Si      -2.71244790       2.71269225      -0.00428622       0.00000000
Si      -0.00133578       2.71221984      -2.71835319       0.00000000
Si       2.71578735       2.71521720      -0.00198880       0.00000000
Si       2.71402803      -0.00270414      -2.71862751       0.00000000
Si      -2.71391400      -2.71928970       0.00192023       0.00000000
