10
Lattice="16.28999089631971 0.0 0.0 0.0 16.28999089631971 0.0 0.0 0.0 34.28971787722196" Properties=species:S:1:pos:R:3:initial_magmoms:R:1 pbc="T T T"
Si       1.33820721       1.11009834       1.59978768       0.00000000
Si      -1.14026742       1.42503291      -1.51399476       0.00000000
Si      -1.33340166      -1.42224732       1.54629569       0.00000000
Si       1.58490297      -1.28135511      -1.51258888       0.00000000
Si       0.55583109      -2.32937226       2.61781568       0.00000000
Si      -2.53210131      -2.68972335      -0.08836465       0.00000000
Si      -2.68172496       2.67382431      -0.05081739       0.00000000
Si      -2.47676418       0.06504597      -2.89443099       0.00000000
Si       2.84723136       2.59582779       0.00654934       0.00000000
Si       1.76303412      -0.33337485       3.49707312       0.00000000
