10
Lattice="16.28999089631971 0.0 0.0 0.0 16.28999089631971 0.0 0.0 0.0 34.28971787722196" Properties=species:S:1:pos:R:3:initial_magmoms:R:1 pbc="T T T"
Si      -0.49941067       1.62874881      -1.66075483       0.00000000
Si       2.37252447      -0.11019959      -0.26262510       0.00000000
Si      -0.44906317       1.59887295       1.73344908       0.00000000
Si      -0.56227704      -2.37382541       0.22953550       0.00000000
Si       2.03594049      -1.25460467      -2.31486586       0.00000000
Si       2.71805166      -0.10645289       2.25269856       0.00000000
Si      -1.20251870       0.06023749       3.32504151       0.00000000
Si       0.83427606      -1.25781380       3.21723458       0.00000000
Si       1.78142553       2.08744263       2.43323403       0.00000000
Si      -2.49351749       2.61391914      -0.87298242       0.00000000
