10
Lattice="16.28999089631971 0.0 0.0 0.0 16.28999089631971 0.0 0.0 0.0 34.28971787722196" Properties=species:S:1:pos:R:3:initial_magmoms:R:1 pbc="T T T"
Si      -0.93421521      -1.69648947      -1.27922219       0.00000000
Si       1.69422516       0.87472413      -1.36600167       0.00000000
Si      -1.34827443       1.37476197       1.34748380       0.00000000
Si       1.38383550      -1.35827649       1.35475322       0.00000000
Si      -1.51923798      -0.46670850      -3.28749566       0.00000000
Si       0.71899173       0.29919843      -3.56994022       0.00000000
Si       2.65468356       2.65776237      -0.09942995       0.00000000
Si      -2.69054599      -0.00003258       2.71096033       0.00000000
Si      -2.68322690      -2.72890243      -0.03899429       0.00000000
Si       0.02298519      -2.71168390       2.71298342       0.00000000
