10
Lattice="16.28999089631971 0.0 0.0 0.0 16.28999089631971 0.0 0.0 0.0 34.28971787722196" Properties=species:S:1:pos:R:3:initial_magmoms:R:1 pbc="T T T"
Si       1.36397799       1.32571278       1.36473153       0.00000000
Si      -1.35964485       1.35347094      -1.35948520       0.00000000
Si       1.35614250      -1.36151820      -1.36030816       0.00000000
Si      -1.37929059      -1.35523026       1.38242504       0.00000000
Si       0.05820417       2.71944638       2.68656661       0.00000000
Si       2.70881523      -2.71456560      -0.00068579       0.00000000
Si      -2.71707426       2.70944122       0.00377187       0.00000000
Si      -0.00146610       2.71219723      -2.71626152       0.00000000
Si       2.71691136       2.71257713       0.00089153       0.00000000
Si       2.71308321      -0.00275301      -2.71663871       0.00000000
