10
Lattice="16.28999089631971 0.0 0.0 0.0 16.28999089631971 0.0 0.0 0.0 34.28971787722196" Properties=species:S:1:pos:R:3:initial_magmoms:R:1 pbc="T T T"
Si      -1.35231435       1.35910728       1.35708492       0.00000000
Si      -1.35578412      -1.35646830      -1.35749640       0.00000000
Si       1.35879777       1.35863487      -1.35698205       0.00000000
Si       1.36013355      -1.35358497       1.36137114       0.00000000
Si      -0.00239463       2.70405855       2.72226222       0.00000000
Si      -2.71350349       0.00107514      -2.71464990       0.00000000
Si       0.00151497      -2.71388142      -2.71458132       0.00000000
Si      -2.71518462       2.71334385       0.00109727       0.00000000
Si      -2.71534426      -2.71373481      -0.00013716       0.00000000
Si      -2.71355562      -0.02862153       2.71687873       0.00000000
