10
Lattice="16.28999089631971 0.0 0.0 0.0 16.28999089631971 0.0 0.0 0.0 34.28971787722196" Properties=species:S:1:pos:R:3:initial_magmoms:R:1 pbc="T T T"
Si      -2.06516475      -1.04751216       0.06319599       0.00000000
Si       0.00803097       2.10914775      -1.12041716       0.00000000
Si       0.64153278       0.11943828       2.29840678       0.00000000
Si       1.42105815      -1.50814449      -1.23353900       0.00000000
Si       2.72086983      -0.92564667       2.02717496       0.00000000
Si       2.82958929       0.03160260      -2.34685818       0.00000000
Si       1.17405288       1.52350596      -3.13363620       0.00000000
Si      -1.61653815       3.34045998       0.31039070       0.00000000
Si       2.48635899      -2.73911463       0.52867917       0.00000000
Si      -3.34063917      -0.77458950      -1.84602228       0.00000000
