10
Lattice="16.28999089631971 0.0 0.0 0.0 16.28999089631971 0.0 0.0 0.0 34.28971787722196" Properties=species:S:1:pos:R:3:initial_magmoms:R:1 pbc="T T T"
Si       1.30577382      -1.39373360      -1.32183507       0.00000000
Si      -1.83132180      -0.99353717       1.04545979       0.00000000
Si       1.62026856       0.25025713       1.70125101       0.00000000
Si      -1.40597361       1.37442514      -1.31199392       0.00000000
Si       0.02508660      -0.82333925       3.29582666       0.00000000
Si       2.43177120       2.50763085       0.20182939       0.00000000
Si       2.65870719      -0.00686925      -2.68567507       0.00000000
Si      -3.44839752       0.81408335       1.34957547       0.00000000
Si      -0.06216264       2.71136988      -2.69016703       0.00000000
Si      -0.05820417      -2.71944638      -2.68656661       0.00000000
