10
Lattice="16.28999089631971 0.0 0.0 0.0 16.28999089631971 0.0 0.0 0.0 34.28971787722196" Properties=species:S:1:pos:R:3:initial_magmoms:R:1 pbc="T T T"
Si      -1.62026856      -0.25025713      -1.70125101       0.00000000
Si       1.89576504      -1.56965946      -0.00792093       0.00000000
Si      -1.59518196      -1.07359638       1.59457564       0.00000000
Si       0.81150264       2.25737372      -1.49942162       0.00000000
Si      -0.31449474      -1.64399073      -3.02308609       0.00000000
Si       0.92973546      -3.15413889      -1.48484848       0.00000000
Si      -3.45159036      -1.24379430      -0.65579122       0.00000000
Si       3.57549210      -0.42737208      -1.41294290       0.00000000
Si       2.47334328       1.25377777       2.77225666       0.00000000
Si      -0.65187693      -0.93400737       3.77941482       0.00000000
