10
Lattice="16.28999089631971 0.0 0.0 0.0 16.28999089631971 0.0 0.0 0.0 34.28971787722196" Properties=species:S:1:pos:R:3:initial_magmoms:R:1 pbc="T T T"
Si       1.58293188       0.48312882      -1.58884926       0.00000000
Si       1.10413620       1.09734327       1.87263112       0.00000000
Si      -2.24393121       1.19935125       0.74974510       0.00000000
Si       1.64206458      -2.22694074      -0.82658840       0.00000000
Si       1.05218739      -1.05300189       2.78778991       0.00000000
Si      -2.16155268      -2.09108214      -1.17428633       0.00000000
Si      -0.99453708      -2.15666242       2.37302125       0.00000000
Si       1.36428750       2.70870120      -1.70190252       0.00000000
Si      -2.61632061      -0.46185408       2.48597165       0.00000000
Si       2.38171203      -2.43460077       1.48412840       0.00000000
