10
Lattice="16.28999089631971 0.0 0.0 0.0 16.28999089631971 0.0 0.0 0.0 34.28971787722196" Properties=species:S:1:pos:R:3:initial_magmoms:R:1 pbc="T T T"
Si       1.35692442      -1.35705474       1.35783930       0.00000000
Si      -1.35827649       1.35773892       1.35746211       0.00000000
Si      -1.35930276      -1.35692442      -1.35742782       0.00000000
Si       1.35679410       1.35948195      -1.35818219       0.00000000
Si       0.00055386      -2.71236645      -2.71475277       0.00000000
Si      -0.00169416       2.71456560       2.71314115       0.00000000
Si       2.71402803       0.00047241       2.71396411       0.00000000
Si       2.71407690      -2.71469592       0.00006858       0.00000000
Si      -0.00180819      -2.71474968       2.71416985       0.00000000
Si      -2.71518462      -0.00208512       2.71423843       0.00000000
