10
Lattice="16.28999089631971 0.0 0.0 0.0 16.28999089631971 0.0 0.0 0.0 34.28971787722196" Properties=species:S:1:pos:R:3:initial_magmoms:R:1 pbc="T T T"
Si      -1.34327340      -1.34879571      -1.39641525       0.00000000
Si       1.37464794       1.36414089      -1.39278054       0.00000000
Si       1.15066044      -1.55253474       1.49558117       0.00000000
Si      -1.33823979       1.47768219       1.51426908       0.00000000
Si       2.46560553      -0.00029322       2.84693971       0.00000000
Si      -2.68708437      -2.68574045      -0.01824214       0.00000000
Si      -2.69252523       2.72675052      -0.01512177       0.00000000
Si       2.72771163       2.71393029      -0.03576420       0.00000000
Si       2.72461653      -2.71749943       0.00363471       0.00000000
Si      -2.69824302       0.00221544      -2.75281438       0.00000000
