10
Lattice="16.28999089631971 0.0 0.0 0.0 16.28999089631971 0.0 0.0 0.0 34.28971787722196" Properties=species:S:1:pos:R:3:initial_magmoms:R:1 pbc="T T T"
Si       0.45036963       1.68990831       1.58329432       0.00000000
Si       0.18508698       1.21554351      -2.03441010       0.00000000
Si       1.64266731      -1.70349417       0.27863840       0.00000000
Si      -2.01205935      -1.14515442       0.64025797       0.00000000
Si       1.96025715       3.00806253       0.29722344       0.00000000
Si       2.32611426      -1.18122048       2.56500949       0.00000000
Si       0.36261540      -3.70770174       0.39824101       0.00000000
Si      -1.78020378       2.50751970      -2.18230173       0.00000000
Si      -1.84806792      -3.29168772      -0.24438296       0.00000000
Si       1.06629453       0.52797519       3.65213131       0.00000000
