10
Lattice="16.28999089631971 0.0 0.0 0.0 16.28999089631971 0.0 0.0 0.0 34.28971787722196" Properties=species:S:1:pos:R:3:initial_magmoms:R:1 pbc="T T T"
Si      -1.39952277       1.83278790       0.20508692       0.00000000
Si      -0.86784975      -1.42390890      -1.64120968       0.00000000
Si       1.92826359       1.18089468      -0.82888581       0.00000000
Si      -0.39688956      -1.07018784       2.17067751       0.00000000
Si       0.88645293       2.08722141       2.78868144       0.00000000
Si      -2.69912268      -0.82720620       2.36355728       0.00000000
Si      -3.15499833      -1.63691694      -1.03140100       0.00000000
Si       3.18808332      -0.52830099      -1.91600764       0.00000000
Si       0.78582960      -3.22893864      -1.77504253       0.00000000
Si       2.72293866       2.35972053       1.15590704       0.00000000
