10
Lattice="16.28999089631971 0.0 0.0 0.0 16.28999089631971 0.0 0.0 0.0 34.28971787722196" Properties=species:S:1:pos:R:3:initial_magmoms:R:1 pbc="T T T"
Si       0.16399143      -2.14653330      -0.88464093       0.00000000
Si      -2.06369865       0.94498290      -0.77265064       0.00000000
Si       2.01205935       1.14515442      -0.64025797       0.00000000
Si       0.28224054      -0.93167397       2.19954947       0.00000000
Si       2.37467475      -2.56254732      -0.24201696       0.00000000
Si      -2.00490804      -1.14468201       2.80935816       0.00000000
Si      -1.39137777       1.93241754      -2.82636587       0.00000000
Si       3.65472666      -0.55833975      -0.36161957       0.00000000
Si      -2.74949136       2.28043710       1.02855495       0.00000000
Si      -0.21655926      -1.92728619      -3.17955016       0.00000000
