10
Lattice="16.28999089631971 0.0 0.0 0.0 16.28999089631971 0.0 0.0 0.0 34.28971787722196" Properties=species:S:1:pos:R:3:initial_magmoms:R:1 pbc="T T T"
Si      -1.46484567       1.40208030      -1.10536396       0.00000000
Si       1.42780221       1.24370892       1.48670013       0.00000000
Si       1.83648573       0.27249912      -1.63277441       0.00000000
Si      -0.47439738      -2.04700140       1.44232921       0.00000000
Si       0.31073175      -0.12595428       2.97264044       0.00000000
Si       3.26992428       0.45820512       0.24572026       0.00000000
Si      -2.28597570      -0.25443351      -2.58359453       0.00000000
Si      -1.28334249      -3.15740925      -0.61800393       0.00000000
Si      -0.88645293      -2.08722141      -2.78868144       0.00000000
Si       2.00966472       2.59081047      -1.70498859       0.00000000
