10
Lattice="16.28999089631971 0.0 0.0 0.0 16.28999089631971 0.0 0.0 0.0 34.28971787722196" Properties=species:S:1:pos:R:3:initial_magmoms:R:1 pbc="T T T"
Si      -0.50371938      -1.52339193       1.70464570       0.00000000
Si      -1.88923275       0.90712494      -1.07151999       0.00000000
Si       1.21257873      -1.45114578      -1.40299888       0.00000000
Si       1.20720303       1.99599741       0.87925744       0.00000000
Si       1.61912826      -2.23635636       2.06026456       0.00000000
Si      -3.20878791       1.01314026       1.10155780       0.00000000
Si      -0.55583109       2.32937226      -2.61781568       0.00000000
Si       0.78237612       3.43947060      -1.01802800       0.00000000
Si       2.65435776      -2.61487080       0.05901264       0.00000000
Si      -0.65682909      -0.34481043       3.67712853       0.00000000
