10
Lattice="16.28999089631971 0.0 0.0 0.0 16.28999089631971 0.0 0.0 0.0 34.28971787722196" Properties=species:S:1:pos:R:3:initial_magmoms:R:1 pbc="T T T"
Si      -1.17918423      -1.95186780       0.34649779       0.00000000
Si      -1.72340055       1.66537557      -0.06823658       0.00000000
Si       0.79254108      -0.13525587      -2.26034518       0.00000000
Si       2.02106772      -0.10018350       1.35753069       0.00000000
Si       0.35525232      -3.40294842      -0.66943854       0.00000000
Si      -0.50205780       3.44313585      -0.89091595       0.00000000
Si       1.63408248       1.84826340       2.64771634       0.00000000
Si       2.46840741       1.55949057      -2.16772860       0.00000000
Si      -1.49543829      -0.02300148      -3.36954959       0.00000000
Si      -0.94719834      -2.43709803       2.65814042       0.00000000
