10
Lattice="16.28999089631971 0.0 0.0 0.0 16.28999089631971 0.0 0.0 0.0 34.28971787722196" Properties=species:S:1:pos:R:3:initial_magmoms:R:1 pbc="T T T"
Si       1.46484567      -1.40208030       1.10536396       0.00000000
Si      -2.34300699       0.13672197       0.22391198       0.00000000
Si       1.18591200       1.88846712      -0.78286899       0.00000000
Si      -0.82113003      -1.65651381      -1.47823056       0.00000000
Si       3.30133140      -1.12958118      -0.52741045       0.00000000
Si      -2.82678741      -2.27339982      -0.46911789       0.00000000
Si       3.47451039       1.18873017      -0.59962463       0.00000000
Si      -2.78795205       1.04723523      -2.31812338       0.00000000
Si       0.06745689       3.78980334       0.36199675       0.00000000
Si      -1.57508010      -0.63653175      -3.42564760       0.00000000
