10
Lattice="16.28999089631971 0.0 0.0 0.0 16.28999089631971 0.0 0.0 0.0 34.28971787722196" Properties=species:S:1:pos:R:3:initial_magmoms:R:1 pbc="T T T"
Si      -1.12285341       1.50340410       1.38180782       0.00000000
Si       1.85880303       1.19490408      -0.78523498       0.00000000
Si      -1.32699969      -0.10463067      -2.00872709       0.00000000
Si       0.80914059      -1.69950312       1.52990520       0.00000000
Si      -2.54834244      -1.88239095      -1.18604771       0.00000000
Si       1.40193369       3.08207193       0.55124181       0.00000000
Si      -0.89103042       3.34356715      -0.12032269       0.00000000
Si       0.74953548       2.25373840       2.71050084       0.00000000
Si       3.55597668      -0.47658024      -0.75543720       0.00000000
Si      -0.82494189      -3.54776652      -1.11781114       0.00000000
