10
Lattice="16.28999089631971 0.0 0.0 0.0 16.28999089631971 0.0 0.0 0.0 34.28971787722196" Properties=species:S:1:pos:R:3:initial_magmoms:R:1 pbc="T T T"
Si       0.42674913       1.49084404       1.76136092       0.00000000
Si       1.48030488       0.40162995      -1.84550794       0.00000000
Si      -1.99764270       0.27210816      -1.32605271       0.00000000
Si       0.39094371      -2.13164424       1.12679505       0.00000000
Si       2.75206518       1.11588129       1.49040342       0.00000000
Si      -1.52800200      -2.12152815       2.50908293       0.00000000
Si       0.78938082      -3.48790077      -0.70434549       0.00000000
Si       3.50101422       0.86747508      -0.69423002       0.00000000
Si      -2.26528740      -1.77388326      -2.43926902       0.00000000
Si       0.46305954       2.26597877      -3.10010084       0.00000000
