10
Lattice="16.28999089631971 0.0 0.0 0.0 16.28999089631971 0.0 0.0 0.0 34.28971787722196" Properties=species:S:1:pos:R:3:initial_magmoms:R:1 pbc="T T T"
Si       2.02070934       0.46584513       1.15127792       0.00000000
Si      -1.48030488      -0.40162995       1.84550794       0.00000000
Si      -0.05295879      -1.74281823      -1.71160651       0.00000000
Si      -1.01724534       1.86434882      -1.25459290       0.00000000
Si      -3.47794758      -0.12952179       0.51945523       0.00000000
Si       2.28457476       2.72841929       0.57157563       0.00000000
Si       1.27176030       0.71425134       3.33591136       0.00000000
Si      -1.66625523      -3.22059816      -0.86499291       0.00000000
Si      -0.74536524      -0.69444270      -3.65926358       0.00000000
Si       3.71807847      -1.05964821       0.25833888       0.00000000
