10
Lattice="16.28999089631971 0.0 0.0 0.0 16.28999089631971 0.0 0.0 0.0 34.28971787722196" Properties=species:S:1:pos:R:3:initial_magmoms:R:1 pbc="T T T"
Si      -1.35690813      -1.35710499      -1.35646771       0.00000000
Si       1.35493766      -1.35389933       1.36263986       0.00000000
Si       1.35812526       1.35822110      -1.35636484       0.00000000
Si      -1.35518139       1.36027364       1.36342852       0.00000000
Si       0.00091224      -2.71456301      -2.71444416       0.00000000
Si      -2.71482624       0.00048218      -2.71420414       0.00000000
Si       2.71495071       2.71470569       0.00044577       0.00000000
Si       0.00096111       2.71591115      -2.71440987       0.00000000
Si      -2.71487511       2.71565051      -0.00030861       0.00000000
Si       2.71615292       0.00050336      -2.71440987       0.00000000
