10
Lattice="16.28999089631971 0.0 0.0 0.0 16.28999089631971 0.0 0.0 0.0 34.28971787722196" Properties=species:S:1:pos:R:3:initial_magmoms:R:1 pbc="T T T"
Si       1.03162031       1.52764362       1.52476174       0.00000000
Si       1.41932556      -1.15618112      -1.56872118       0.00000000
Si      -1.48926438      -1.36251189       1.55678835       0.00000000
Si      -1.30531770       1.57058406      -1.55260500       0.00000000
Si       2.57799743       2.82380634       0.00061722       0.00000000
Si       2.77264664      -2.63566403      -0.12186573       0.00000000
Si      -2.81077434       0.33192504       2.60481987       0.00000000
Si       0.05163992      -2.49456749      -2.95289499       0.00000000
Si      -2.83449258      -2.66707115       0.01930512       0.00000000
Si      -2.65847913       0.21960549      -2.95210633       0.00000000
