10
Lattice="16.28999089631971 0.0 0.0 0.0 16.28999089631971 0.0 0.0 0.0 34.28971787722196" Properties=species:S:1:pos:R:3:initial_magmoms:R:1 pbc="T T T"
Si      -1.32150996       1.69443693       1.04803152       0.00000000
Si      -1.34522820      -1.30455926      -1.53748323       0.00000000
Si       0.73580301      -1.29043583       2.02789505       0.00000000
Si       1.48926438       1.36251189      -1.55678835       0.00000000
Si      -2.44737702       0.37659059       2.64771634       0.00000000
Si       2.52088469       2.89015551      -0.03202661       0.00000000
Si      -3.02495526      -2.44684664      -0.13246125       0.00000000
Si      -1.28102931      -1.54649834       3.33731724       0.00000000
Si       0.18143802      -2.49205139      -3.12156621       0.00000000
Si      -2.53526157       0.21522185      -3.11590840       0.00000000
