10
Lattice="16.28999089631971 0.0 0.0 0.0 16.28999089631971 0.0 0.0 0.0 34.28971787722196" Properties=species:S:1:pos:R:3:initial_magmoms:R:1 pbc="T T T"
Si       1.20283731      -1.95270511       0.46606611       0.00000000
Si      -2.29847013      -0.69526860       0.41007097       0.00000000
Si      -0.38105568       0.92980062       2.39318362       0.00000000
Si       0.29066247       0.14716386      -2.66276953       0.00000000
Si      -2.90510973       1.62859275       0.25741306       0.00000000
Si      -2.73520503      -2.54432600      -0.92397125       0.00000000
Si       3.38166621      -2.00685795      -0.49528096       0.00000000
Si      -1.39268097      -0.80878384       3.68743401       0.00000000
Si       2.44327194      -2.09256306       2.50242322       0.00000000
Si      -1.72239057      -0.53015805      -3.68830699       0.00000000
