10
Lattice="16.28999089631971 0.0 0.0 0.0 16.28999089631971 0.0 0.0 0.0 34.28971787722196" Properties=species:S:1:pos:R:3:initial_magmoms:R:1 pbc="T T T"
Si      -1.76306670      -1.05730245      -1.14846757       0.00000000
Si       1.35430647       1.41894045      -1.42412277       0.00000000
Si      -1.42221474       1.24400214       1.59318691       0.00000000
Si       1.26166050      -1.44756198       1.57854862       0.00000000
Si       2.55742479       2.64727161       0.20759007       0.00000000
Si      -3.47817564       0.75189753      -1.22390500       0.00000000
Si      -2.69304651       2.67294465       0.30640623       0.00000000
Si       2.62714110      -2.83653046       0.20850903       0.00000000
Si      -2.77469199      -2.79588691       0.14578282       0.00000000
Si      -0.09697437       2.60771949       2.96278416       0.00000000
