10
Lattice="16.28999089631971 0.0 0.0 0.0 16.28999089631971 0.0 0.0 0.0 34.28971787722196" Properties=species:S:1:pos:R:3:initial_magmoms:R:1 pbc="T T T"
Si       1.27083177      -1.42894251       1.28678067       0.00000000
Si       1.11707046       1.36966320      -1.48594031       0.00000000
Si      -1.48393755       1.29828042       1.28110229       0.00000000
Si      -0.78512913      -1.92104712      -1.53031123       0.00000000
Si      -0.31073175       0.12595428      -2.97264044       0.00000000
Si       2.56660353       2.61223182      -0.06365890       0.00000000
Si       2.59607214      -0.06522516       2.65637792       0.00000000
Si      -0.11733687       2.65662207       2.65562355       0.00000000
Si       2.69304651      -2.67294465      -0.30640623       0.00000000
Si      -0.11727171      -2.77977447       2.65102872       0.00000000
