10
Lattice="16.28999089631971 0.0 0.0 0.0 16.28999089631971 0.0 0.0 0.0 34.28971787722196" Properties=species:S:1:pos:R:3:initial_magmoms:R:1 pbc="T T T"
Si      -1.35562122       1.35407367       1.36106253       0.00000000
Si       1.35717085       1.35729909      -1.35694776       0.00000000
Si      -1.35760860      -1.35731538      -1.35667345       0.00000000
Si       1.35807273      -1.35759231       1.36095966       0.00000000
Si       2.71263753       2.71524978       0.00037719       0.00000000
Si      -0.00011403       2.71485882      -2.71382695       0.00000000
Si       2.71473406      -0.00017919      -2.71406698       0.00000000
Si      -2.71495656       0.00001629      -2.71399840       0.00000000
Si       0.00003258      -2.71472850      -2.71447845       0.00000000
Si       2.71402218      -2.71593396       0.00037719       0.00000000
