10
Lattice="16.28999089631971 0.0 0.0 0.0 16.28999089631971 0.0 0.0 0.0 34.28971787722196" Properties=species:S:1:pos:R:3:initial_magmoms:R:1 pbc="T T T"
Si      -1.20752883      -0.53525682      -1.89375360       0.00000000
Si       0.91307079      -1.59710418       1.44178057       0.00000000
Si      -1.78561206       1.13101470       1.06030725       0.00000000
Si       1.68497244       1.64385648      -0.29859503       0.00000000
Si      -2.27872665       2.78896203      -0.49504093       0.00000000
Si       1.88457381       2.86047513       1.80617761       0.00000000
Si       3.73785683       0.51520383      -0.90531764       0.00000000
Si       2.90717760      -2.58227451       0.65400815       0.00000000
Si       1.51941717      -0.75750129       3.56356092       0.00000000
Si      -0.40710339      -3.46824200       1.84345055       0.00000000
