10
Lattice="16.28999089631971 0.0 0.0 0.0 16.28999089631971 0.0 0.0 0.0 34.28971787722196" Properties=species:S:1:pos:R:3:initial_magmoms:R:1 pbc="T T T"
Si       0.17317899       2.31831135      -0.07221419       0.00000000
Si       1.43343855       0.18570600       1.87849466       0.00000000
Si      -0.79467507      -1.17882585      -1.98479285       0.00000000
Si      -1.83648573      -0.27249912       1.63277441       0.00000000
Si      -0.40868352       0.97120980       3.11947454       0.00000000
Si      -3.30133140       1.12958118       0.52741045       0.00000000
Si       2.14959582       2.54086533       1.41297719       0.00000000
Si      -2.11541940       3.01804830      -0.25545854       0.00000000
Si       1.33038801       2.77850385      -2.04785168       0.00000000
Si      -2.72293866      -2.35972053      -1.15590704       0.00000000
