10
Lattice="16.28999089631971 0.0 0.0 0.0 16.28999089631971 0.0 0.0 0.0 34.28971787722196" Properties=species:S:1:pos:R:3:initial_magmoms:R:1 pbc="T T T"
Si       1.77264522      -0.18106335      -1.49208362       0.00000000
Si      -1.67586633      -1.69474644      -0.09261658       0.00000000
Si      -1.37401263       2.00316501      -0.64907043       0.00000000
Si       1.24784658      -0.76580919       2.05056056       0.00000000
Si       1.91251116       1.51169571       2.53010254       0.00000000
Si      -2.46840741      -1.55949057       2.16772860       0.00000000
Si      -2.97046521       1.88364528       1.27681265       0.00000000
Si       0.95729814       0.40946544      -3.60093674       0.00000000
Si       2.99813607       1.92609702      -1.18025275       0.00000000
Si      -0.16969293       3.83153832       0.25436127       0.00000000
