10
Lattice="16.28999089631971 0.0 0.0 0.0 16.28999089631971 0.0 0.0 0.0 34.28971787722196" Properties=species:S:1:pos:R:3:initial_magmoms:R:1 pbc="T T T"
Si      -1.80700083       1.44034551       0.22168315       0.00000000
Si       1.70223984       1.01421540      -1.23953970       0.00000000
Si       0.92271447      -0.55560303       2.08910223       0.00000000
Si      -0.30838599      -2.03284539      -1.20274682       0.00000000
Si       1.86168636      -2.63914290      -0.71305508       0.00000000
Si      -3.09770640       0.04919580       1.59066661       0.00000000
Si       2.72232520      -0.94679109      -2.07545491       0.00000000
Si       2.46698596      -2.18435868       1.48395695       0.00000000
Si       2.30605217       1.28751273       2.50177921       0.00000000
Si       0.58764546       2.53467513      -2.65615161       0.00000000
