10
Lattice="16.28999089631971 0.0 0.0 0.0 16.28999089631971 0.0 0.0 0.0 34.28971787722196" Properties=species:S:1:pos:R:3:initial_magmoms:R:1 pbc="T T T"
Si       1.36113768       1.34718300       1.36258843       0.00000000
Si       1.31555501      -1.28883222      -1.46436722       0.00000000
Si      -1.35322659      -1.36782243       1.35998241       0.00000000
Si      -1.46691450       1.23729066      -1.40580378       0.00000000
Si      -0.55348533      -2.31236550      -2.67381460       0.00000000
Si      -2.16542970      -0.49681242      -2.90341289       0.00000000
Si       2.72780027       2.68853418      -0.01198769       0.00000000
Si      -2.71819827       2.70186211      -0.00979658       0.00000000
Si       0.00574899       2.70423537       2.71991338       0.00000000
Si      -2.71122615      -0.00928530       2.71898755       0.00000000
