10
Lattice="16.28999089631971 0.0 0.0 0.0 16.28999089631971 0.0 0.0 0.0 34.28971787722196" Properties=species:S:1:pos:R:3:initial_magmoms:R:1 pbc="T T T"
Si      -1.16634771       1.92308893      -0.68960090       0.00000000
Si      -1.20431970      -1.82837331      -0.90343170       0.00000000
Si       0.38503044      -0.64835829       2.24594349       0.00000000
Si       2.01683232       0.25606251      -1.30942219       0.00000000
Si      -2.80077228      -1.94789304       1.02245138       0.00000000
Si      -3.10445046       1.70796482       0.60013898       0.00000000
Si      -0.07183890       1.23880956       3.58242028       0.00000000
Si      -1.47377259      -1.84326237       3.03117846       0.00000000
Si       0.16969293      -3.83153832      -0.25436127       0.00000000
Si       2.08220409      -2.31984261       2.27574127       0.00000000
