10
Lattice="16.28999089631971 0.0 0.0 0.0 16.28999089631971 0.0 0.0 0.0 34.28971787722196" Properties=species:S:1:pos:R:3:initial_magmoms:R:1 pbc="T T T"
Si       1.79235775       1.47422871       0.66378073       0.00000000
Si       1.12937104      -2.06607699       0.55209906       0.00000000
Si      -0.24974688       0.68996295      -2.35176161       0.00000000
Si      -1.30745250      -0.07280001       2.16796862       0.00000000
Si      -2.39561296       1.76536359       1.17157745       0.00000000
Si       3.36760075      -1.30017006       0.26965449       0.00000000
Si       1.97438221       0.56379690      -3.17958445       0.00000000
Si       1.12207312       2.65947282       2.52795501       0.00000000
Si       0.60835168      -3.64765680      -1.04995175       0.00000000
Si      -0.10433419       1.15553115       3.79968146       0.00000000
