10
Lattice="16.28999089631971 0.0 0.0 0.0 16.28999089631971 0.0 0.0 0.0 34.28971787722196" Properties=species:S:1:pos:R:3:initial_magmoms:R:1 pbc="T T T"
Si       1.38577401       1.84388139       0.52826769       0.00000000
Si       1.45093401      -1.97157870       0.04464524       0.00000000
Si      -0.39866517       0.97536375      -2.30138999       0.00000000
Si      -1.66167774       0.09120771       1.97217423       0.00000000
Si       0.88337412       2.10053034       2.94572844       0.00000000
Si       2.70747945      -1.42763931       2.13412465       0.00000000
Si      -0.23744304       0.23975622       3.82546593       0.00000000
Si       0.31035708       3.93862878      -0.19569153       0.00000000
Si      -2.38517528      -2.27903616      -2.24340605       0.00000000
Si      -1.23611778      -0.74860695      -3.73524964       0.00000000
