10
Lattice="16.28999089631971 0.0 0.0 0.0 16.28999089631971 0.0 0.0 0.0 34.28971787722196" Properties=species:S:1:pos:R:3:initial_magmoms:R:1 pbc="T T T"
Si      -1.38333770      -1.84311576      -0.41267699       0.00000000
Si       1.97638425      -0.03919374      -1.27554393       0.00000000
Si      -1.43854451       1.91379807       0.03644999       0.00000000
Si       1.13558730      -0.88278768       1.94100485       0.00000000
Si       2.11100481      -2.34761706      -1.65643433       0.00000000
Si       0.16093380      -3.47187141      -1.01782226       0.00000000
Si      -2.30605217      -1.28751273      -2.50177921       0.00000000
Si       1.35223290       0.93309120      -3.26129689       0.00000000
Si       0.11180153       3.67228728      -0.16904840       0.00000000
Si      -0.56412989      -2.08075428       3.04815188       0.00000000
