10
Lattice="16.28999089631971 0.0 0.0 0.0 16.28999089631971 0.0 0.0 0.0 34.28971787722196" Properties=species:S:1:pos:R:3:initial_magmoms:R:1 pbc="T T T"
Si       1.35057132      -1.23131223      -1.47082398       0.00000000
Si      -1.35332107       1.47948291      -1.44685545       0.00000000
Si       2.03869350       0.95979118       1.20243821       0.00000000
Si      -1.02037302      -1.88020809       1.51574354       0.00000000
Si       2.50813872      -2.68017741       0.01189854       0.00000000
Si      -2.70873476      -2.65991265      -0.08404415       0.00000000
Si      -2.77264664       2.63566403       0.12186573       0.00000000
Si       0.00065160      -2.57626350      -2.83600128       0.00000000
Si       3.65576922      -0.84782934       0.89832253       0.00000000
Si       1.39632993      -0.76002624       3.54175265       0.00000000
