10
Lattice="16.28999089631971 0.0 0.0 0.0 16.28999089631971 0.0 0.0 0.0 34.28971787722196" Properties=species:S:1:pos:R:3:initial_magmoms:R:1 pbc="T T T"
Si      -0.83745261      -1.72397070      -1.43385964       0.00000000
Si      -1.70768070       1.84308318       0.07968935       0.00000000
Si       0.39866517      -0.97536375       2.30138999       0.00000000
Si       1.82083104       1.04311386      -1.42415565       0.00000000
Si       1.78443918       0.86851764       2.82965768       0.00000000
Si      -2.04789735      -0.24070104      -2.91226166       0.00000000
Si       0.70902225       2.96326503       2.10569846       0.00000000
Si      -1.98651011      -3.25439991       0.05798395       0.00000000
Si      -3.39604244       1.06337862      -1.52009833       0.00000000
Si       0.66326364       2.49197904      -2.90687817       0.00000000
