10
Lattice="10.86 0.0 0.0 0.0 10.86 0.0 0.0 0.0 10.86" Properties=species:S:1:pos:R:3:initial_magmoms:R:1 pbc="T T T"
Si       1.43289012      -1.55890956      -0.92951826       0.00000000
Si       1.43289012       1.15609044       1.78548174       0.00000000
Si      -1.28210988      -1.55890956       1.78548174       0.00000000
Si       0.00521280       2.46278736      -2.14551246       0.00000000
Si      -2.45206854      -0.18978936      -2.21898036       0.00000000
Si       2.79039012      -0.20140956      -2.28701826       0.00000000
Si       0.07539012      -2.91640956      -2.28701826       0.00000000
Si       2.79039012       2.51359044       0.42798174       0.00000000
Si      -2.63960988      -2.91640956       0.42798174       0.00000000
Si      -3.57103950       1.30270044       1.11951396       0.00000000
