10
Lattice="10.86 0.0 0.0 0.0 10.86 0.0 0.0 0.0 10.86" Properties=species:S:1:pos:R:3:initial_magmoms:R:1 pbc="T T T"
Si       1.09732698       1.57011708       1.38514956       0.00000000
Si      -1.61767302      -1.14488292       1.38514956       0.00000000
Si      -1.61767302       1.57011708      -1.32985044       0.00000000
Si       1.52339736      -0.99827292      -1.99581822       0.00000000
Si       2.35140720      -2.35679376      -0.13238340       0.00000000
Si      -0.20099688      -2.35124430      -2.82924720       0.00000000
Si       2.45482698       0.21261708       2.74264956       0.00000000
Si      -0.26017302      -2.50238292       2.74264956       0.00000000
Si       2.44603038       3.01480116       0.14705526       0.00000000
Si      -2.97517302      -2.50238292       0.02764956       0.00000000
