10
Lattice="10.86 0.0 0.0 0.0 10.86 0.0 0.0 0.0 10.86" Properties=species:S:1:pos:R:3:initial_magmoms:R:1 pbc="T T T"
Si      -1.72439424      -1.35297138      -0.83342898       0.00000000
Si       0.82800984      -1.35852084       1.86343482       0.00000000
Si      -1.52339736       0.99827292       1.99581822       0.00000000
Si      -0.04878312       2.12079510      -1.69518084       0.00000000
Si      -0.42607038      -2.86161000      -2.04903222       0.00000000
Si       2.28892962      -2.86161000       0.66596778       0.00000000
Si      -3.14107038      -0.14661000      -2.04903222       0.00000000
Si       1.11897096      -1.49248980      -3.33849432       0.00000000
Si      -1.75859238       1.34457660      -3.22556118       0.00000000
Si       3.57103950      -1.30270044      -1.11951396       0.00000000
