10
Lattice="16.28999089631971 0.0 0.0 0.0 16.28999089631971 0.0 0.0 0.0 34.185847837958455" Properties=species:S:1:pos:R:3:initial_magmoms:R:1 pbc="T T T"
Si       1.41770241      -1.31129613      -1.38319436       0.00000000
Si      -1.31875695       1.37930688      -1.41833743       0.00000000
Si       0.86294646       1.92635766       1.22023033       0.00000000
Si      -0.52561314      -1.87675624       1.48780312       0.00000000
Si       0.16970922      -0.58334490       3.48015544       0.00000000
Si      -2.54151693      -2.68254665       0.22443022       0.00000000
Si       0.04329882      -2.66035967      -2.76245735       0.00000000
Si      -0.97660179       3.58046055       1.00014172       0.00000000
Si      -2.67066405       0.05491359      -2.76608105       0.00000000
Si      -2.77778709       2.65756689      -0.15479361       0.00000000
