10
Lattice="16.28999089631971 0.0 0.0 0.0 16.28999089631971 0.0 0.0 0.0 34.185847837958455" Properties=species:S:1:pos:R:3:initial_magmoms:R:1 pbc="T T T"
Si      -2.30637078       0.35466588      -0.00666624       0.00000000
Si       0.91202823       2.14879761      -0.55863125       0.00000000
Si       0.59888556      -0.52198699       2.27708641       0.00000000
Si       0.29835135      -2.07206261      -1.25769804       0.00000000
Si       3.16161207       1.54202769      -0.24771079       0.00000000
Si      -3.01107618      -1.05234377       1.79383500       0.00000000
Si       1.49248980      -3.34118393       0.34852491       0.00000000
Si       0.35932482      -2.87954162       2.35882482       0.00000000
Si       2.17178280      -1.73248548      -2.60708258       0.00000000
Si      -0.61452396       0.95537592       3.67706603       0.00000000
