10
Lattice="16.28999089631971 0.0 0.0 0.0 16.28999089631971 0.0 0.0 0.0 34.185847837958455" Properties=species:S:1:pos:R:3:initial_magmoms:R:1 pbc="T T T"
Si       2.13506514       1.05169869       0.02358825       0.00000000
Si      -0.95232969       0.33401016      -2.16379445       0.00000000
Si      -1.45630971       1.62140886       1.04075453       0.00000000
Si       0.33842475      -2.18907952       0.96619516       0.00000000
Si       2.21713416       1.57426560      -2.25055818       0.00000000
Si      -1.31649264       0.90350856       3.31059354       0.00000000
Si       0.04921209       2.45983887      -2.76536315       0.00000000
Si       1.81856673       3.11041260       1.02749042       0.00000000
Si       0.26107983      -1.14335275      -3.56377407       0.00000000
Si      -0.38547027       3.70195137       0.68696500       0.00000000
