10
Lattice="16.28999089631971 0.0 0.0 0.0 16.28999089631971 0.0 0.0 0.0 34.185847837958455" Properties=species:S:1:pos:R:3:initial_magmoms:R:1 pbc="T T T"
Si       1.65100779       1.69090200      -0.18125347       0.00000000
Si       0.07193664      -1.97217233       1.33088999       0.00000000
Si      -1.70311950       1.25387388       1.10987836       0.00000000
Si      -0.69242274      -1.09050473      -2.00927433       0.00000000
Si      -2.33820144      -2.34703781       1.02759297       0.00000000
Si       1.19575116      -2.45562695      -2.41865009       0.00000000
Si       1.21212261      -3.50900351      -0.25082171       0.00000000
Si       1.51119072       2.40880230      -2.45109247       0.00000000
Si       3.59007165       0.75054546       1.06571022       0.00000000
Si      -2.54283642      -2.53394927      -1.32312979       0.00000000
