10
Lattice="16.28999089631971 0.0 0.0 0.0 16.28999089631971 0.0 0.0 0.0 34.185847837958455" Properties=species:S:1:pos:R:3:initial_magmoms:R:1 pbc="T T T"
Si      -1.48691862       0.21323610      -1.86388184       0.00000000
Si      -0.91634508      -0.25295112       2.19986054       0.00000000
Si       1.32108642       2.01564315      -0.18142440       0.00000000
Si       0.93416634      -2.23876728      -0.32828688       0.00000000
Si      -2.17973232      -2.01324852      -2.08280813       0.00000000
Si      -0.10308312       1.22712570      -3.53078471       0.00000000
Si      -0.00760743      -2.88137520      -2.42073542       0.00000000
Si       3.49225020       1.32027192       0.52690677       0.00000000
Si       0.27921060      -2.05959357       3.17983260       0.00000000
Si      -3.22859166      -0.74645667       2.06291195       0.00000000
