10
Lattice="16.28999089631971 0.0 0.0 0.0 16.28999089631971 0.0 0.0 0.0 34.185847837958455" Properties=species:S:1:pos:R:3:initial_magmoms:R:1 pbc="T T T"
Si      -0.01402569       1.69942167       1.66286894       0.00000000
Si       0.07255566       1.28265831      -2.00681295       0.00000000
Si      -1.70955405      -1.58280156       0.63688270       0.00000000
Si       2.15700777      -0.99010620      -0.68898196       0.00000000
Si      -0.11256390      -0.58438746      -3.41544159       0.00000000
Si       1.30287420       0.57578634       3.22925617       0.00000000
Si      -1.04358627      -3.38283027      -0.79181305       0.00000000
Si      -2.45283417      -0.93955833       2.88186858       0.00000000
Si       2.09147310      -1.17592623      -3.07491617       0.00000000
Si       2.78682804      -2.69467551       0.83984419       0.00000000
