10
Lattice="16.28999089631971 0.0 0.0 0.0 16.28999089631971 0.0 0.0 0.0 34.185847837958455" Properties=species:S:1:pos:R:3:initial_magmoms:R:1 pbc="T T T"
Si      -1.34390871       1.30427514      -1.34569247       0.00000000
Si       1.34490240       1.35099486       1.34050305       0.00000000
Si       1.35347094      -1.33058349      -1.37274032       0.00000000
Si      -1.36515087      -1.36971207       1.34128933       0.00000000
Si       0.24130377       2.16702612      -2.80595002       0.00000000
Si      -0.46294551      -2.18678589      -2.84765677       0.00000000
Si      -2.23710570      -0.33083361      -2.82841013       0.00000000
Si       2.70405855      -0.00633681       2.69881010       0.00000000
Si      -0.01159848       2.70829395       2.69877592       0.00000000
Si       2.70936909       2.70607851      -0.04480400       0.00000000
