10
Lattice="16.28999089631971 0.0 0.0 0.0 16.28999089631971 0.0 0.0 0.0 34.185847837958455" Properties=species:S:1:pos:R:3:initial_magmoms:R:1 pbc="T T T"
Si      -1.35767376       1.35703845      -1.35707636       0.00000000
Si       1.35866745       1.35681039       1.35652939       0.00000000
Si       1.35718506      -1.35772263      -1.35731566       0.00000000
Si      -1.35868374      -1.35708732       1.35758915       0.00000000
Si       2.71458189       0.00192222       2.71097343       0.00000000
Si      -0.00118917       2.71376739      -2.71425528       0.00000000
Si       2.71446786      -0.00086337      -2.71422109       0.00000000
Si      -2.71502172       0.00083079       2.71367412       0.00000000
Si       0.00118917       2.71200807       2.71702433       0.00000000
Si       2.71466334       2.71445157      -0.00051279       0.00000000
