10
Lattice="16.28999089631971 0.0 0.0 0.0 16.28999089631971 0.0 0.0 0.0 34.185847837958455" Properties=species:S:1:pos:R:3:initial_magmoms:R:1 pbc="T T T"
Si      -1.29968136       0.14703354       1.97754985       0.00000000
Si      -0.94705173       0.59720769      -2.09203831       0.00000000
Si       1.64458953       1.79802504      -0.06813243       0.00000000
Si       0.94397292      -2.27507769       0.18439857       0.00000000
Si      -2.88701154       1.18915371      -0.92154842       0.00000000
Si       2.41202772      -1.41931512       1.78576713       0.00000000
Si       1.77484437      -2.26478241      -2.19049361       0.00000000
Si       3.62449242       0.37781397       0.13903392       0.00000000
Si       0.12787650       1.44306594       3.35106961       0.00000000
Si      -1.77445341      -2.16815013       2.44593041       0.00000000
