10
Lattice="16.28999089631971 0.0 0.0 0.0 16.28999089631971 0.0 0.0 0.0 34.185847837958455" Properties=species:S:1:pos:R:3:initial_magmoms:R:1 pbc="T T T"
Si       0.69328611      -1.70347788      -1.49358053       0.00000000
Si       1.54579068       1.79240499      -0.19479107       0.00000000
Si      -2.08033074       0.70165917      -0.93105209       0.00000000
Si       0.26178030      -0.65425527       2.29876025       0.00000000
Si       0.59906475       3.32185680       1.27198774       0.00000000
Si       0.06625143      -0.60025392      -3.65299918       0.00000000
Si      -1.57643217       1.11148299      -3.21135197       0.00000000
Si      -1.31602023      -2.37052080       2.60045053       0.00000000
Si       2.86444989      -2.39884911      -0.78524936       0.00000000
Si       2.49015456      -1.24802577       2.71630643       0.00000000
