10
Lattice="16.28999089631971 0.0 0.0 0.0 16.28999089631971 0.0 0.0 0.0 34.185847837958455" Properties=species:S:1:pos:R:3:initial_magmoms:R:1 pbc="T T T"
Si       0.94672593      -1.52945181      -1.46677881       0.00000000
Si       1.38795687       1.08714573       1.55361091       0.00000000
Si      -0.91308708       1.72737531      -1.31779680       0.00000000
Si      -1.59966171      -0.67254894       1.63162306       0.00000000
Si      -0.08061921       2.84824134       2.03087980       0.00000000
Si      -2.02232205       1.55737287       2.40189901       0.00000000
Si      -0.59906475      -3.32185680      -1.27198774       0.00000000
Si       1.42345278      -0.14659371      -3.31561886       0.00000000
Si       1.98364959      -0.63407196       2.96288909       0.00000000
Si       0.03078810       3.61861173      -0.28401618       0.00000000
