10
Lattice="16.28999089631971 0.0 0.0 0.0 16.28999089631971 0.0 0.0 0.0 34.185847837958455" Properties=species:S:1:pos:R:3:initial_magmoms:R:1 pbc="T T T"
Si      -0.59569272       1.72121769      -1.40927818       0.00000000
Si      -1.41133302      -1.21438692       1.44773728       0.00000000
Si       1.50724854       0.76457115       1.66885147       0.00000000
Si       0.97842627      -1.76231736      -1.44814751       0.00000000
Si       2.16909495      -1.48037004       1.68310697       0.00000000
Si       0.16747749      -2.80997613       2.06780053       0.00000000
Si       3.08882835      -1.71678681      -0.46041526       0.00000000
Si      -2.99558439      -1.95152571      -0.06789313       0.00000000
Si      -1.98364959       0.63407196      -2.96288909       0.00000000
Si       1.32654357       2.95961607      -1.85834373       0.00000000
