10
Lattice="16.28999089631971 0.0 0.0 0.0 16.28999089631971 0.0 0.0 0.0 34.185847837958455" Properties=species:S:1:pos:R:3:initial_magmoms:R:1 pbc="T T T"
Si       1.35576783       1.35597960      -1.35734985       0.00000000
Si      -1.35739683       1.35703983       1.35745240       0.00000000
Si       1.35765747      -1.35739683       1.35687124       0.00000000
Si      -1.35790182      -1.36006839      -1.35786263       0.00000000
Si       0.00130320      -2.71244790      -2.71193064       0.00000000
Si      -0.00195480       2.71382996       2.71463132       0.00000000
Si       2.71456560      -0.00105885       2.71452876       0.00000000
Si       2.71524978       2.71404988       0.00027349       0.00000000
Si       2.71458189      -2.71487511      -0.00027349       0.00000000
Si       0.00133578       2.71347321      -2.71599876       0.00000000
