10
Lattice="16.28999089631971 0.0 0.0 0.0 16.28999089631971 0.0 0.0 0.0 34.185847837958455" Properties=species:S:1:pos:R:3:initial_magmoms:R:1 pbc="T T T"
Si       0.98069058       1.55447325       1.45819815       0.00000000
Si       1.40403510      -1.30935762      -1.41221816       0.00000000
Si      -1.32380685       1.40486589      -1.41023538       0.00000000
Si      -1.38681657      -1.33674111       1.47881223       0.00000000
Si       1.20482469      -0.13592376       3.50271811       0.00000000
Si       2.70350469       2.56049478       0.08478095       0.00000000
Si      -2.54570346       2.74634739       0.19803873       0.00000000
Si      -2.64916125      -2.70080055      -0.00335021       0.00000000
Si       2.73098592      -2.71829601      -0.00205115       0.00000000
Si       0.04074129      -2.66466933      -2.78864372       0.00000000
