10
Lattice="16.28999089631971 0.0 0.0 0.0 16.28999089631971 0.0 0.0 0.0 34.185847837958455" Properties=species:S:1:pos:R:3:initial_magmoms:R:1 pbc="T T T"
Si      -0.98069058      -1.55447325      -1.45819815       0.00000000
Si       1.72281411       1.00602153      -1.37341720       0.00000000
Si      -1.51049025       1.99766455       0.00321347       0.00000000
Si       0.22413411      -1.69039701       2.04451996       0.00000000
Si      -2.30449743      -0.14960736      -2.86843354       0.00000000
Si      -2.36750715      -2.89121436       0.02061408       0.00000000
Si       0.43282530       2.56312466      -2.86778401       0.00000000
Si       3.15374400       2.27167864      -0.02666498       0.00000000
Si      -3.52639404       1.19187414      -1.26015943       0.00000000
Si       1.92753054       2.84380136       1.91622040       0.00000000
