10
Lattice="16.28999089631971 0.0 0.0 0.0 16.28999089631971 0.0 0.0 0.0 34.185847837958455" Properties=species:S:1:pos:R:3:initial_magmoms:R:1 pbc="T T T"
Si      -0.94387518      -1.89123642      -1.03378062       0.00000000
Si       2.34220878       0.15742656      -0.26292350       0.00000000
Si      -1.02819222       1.98462440      -0.82791333       0.00000000
Si      -0.11140731      -0.77037039       2.31489598       0.00000000
Si       1.35716877      -2.53146600       1.83762709       0.00000000
Si       2.58176952       2.51498119      -0.34466191       0.00000000
Si      -0.03078810      -3.61861173       0.28401618       0.00000000
Si       3.27940506      -1.29306762       1.38856154       0.00000000
Si      -0.97844256       3.57080777       0.87970491       0.00000000
Si      -3.28359159       1.59481611      -1.13678263       0.00000000
