10
Lattice="16.28999089631971 0.0 0.0 0.0 16.28999089631971 0.0 0.0 0.0 34.185847837958455" Properties=species:S:1:pos:R:3:initial_magmoms:R:1 pbc="T T T"
Si      -1.60867008      -1.72923237       0.06054317       0.00000000
Si      -0.01637145       1.05337656      -2.16782838       0.00000000
Si       1.78971714      -0.56391093       1.54034679       0.00000000
Si      -1.14018597       1.53683118       1.58171169       0.00000000
Si       1.74446352      -2.73039948       0.61684978       0.00000000
Si      -1.90454535       2.41849878      -1.75845262       0.00000000
Si      -1.21212261       3.50900351       0.25082171       0.00000000
Si       2.09380257       2.10731742      -2.27483014       0.00000000
Si      -0.34231806      -3.72330756       0.26535070       0.00000000
Si      -3.29807340      -1.39587381      -1.55928576       0.00000000
