10
Lattice="16.28999089631971 0.0 0.0 0.0 16.28999089631971 0.0 0.0 0.0 34.185847837958455" Properties=species:S:1:pos:R:3:initial_magmoms:R:1 pbc="T T T"
Si      -1.10983770       1.46967565       1.47638162       0.00000000
Si       1.39878972       1.23413854      -1.50350267       0.00000000
Si       1.57978791      -1.24256766       1.45774348       0.00000000
Si      -1.84021614      -0.96134295      -1.40087670       0.00000000
Si      -2.53995309       2.72583013       0.11016054       0.00000000
Si      -2.46800016       0.10783654       2.83675008       0.00000000
Si      -3.41868456       0.86557730      -1.31835202       0.00000000
Si      -2.68257204      -2.68255479       0.07480210       0.00000000
Si       0.24920442      -2.60524245       2.83121197       0.00000000
Si       2.88438885       2.64820828       0.08048721       0.00000000
