10
Lattice="16.28999089631971 0.0 0.0 0.0 16.28999089631971 0.0 0.0 0.0 34.185847837958455" Properties=species:S:1:pos:R:3:initial_magmoms:R:1 pbc="T T T"
Si      -1.31689989       1.12363533      -1.56638723       0.00000000
Si      -1.93929192      -0.65914227       1.12752886       0.00000000
Si       0.82930761       1.89861579       1.11105811       0.00000000
Si       1.63817127      -1.87253550      -0.27388798       0.00000000
Si      -0.60722604      -2.06503443       2.48152507       0.00000000
Si       2.16015174       0.62729532       2.49813599       0.00000000
Si      -1.30287420      -0.57578634      -3.22925617       0.00000000
Si      -0.10601532       3.11800374      -1.77529707       0.00000000
Si       3.45035232      -0.86242518       0.99791315       0.00000000
Si       0.69572961      -3.50259435       1.11592618       0.00000000
