10
Lattice="16.28999089631971 0.0 0.0 0.0 16.28999089631971 0.0 0.0 0.0 34.185847837958455" Properties=species:S:1:pos:R:3:initial_magmoms:R:1 pbc="T T T"
Si       0.74129274       1.90819431       1.12379200       0.00000000
Si      -1.14561054      -1.47592287       1.42223462       0.00000000
Si       1.37929059      -1.28971188      -1.42773855       0.00000000
Si      -1.34980569       1.41289686      -1.43768663       0.00000000
Si      -2.39951700       0.14014287       2.47758652       0.00000000
Si      -2.69431713      -2.57999391      -0.01852874       0.00000000
Si       2.67419898       2.74580982       0.01746898       0.00000000
Si       0.00768888      -2.64487698      -2.80601014       0.00000000
Si      -2.73057867       2.72969901      -0.02293872       0.00000000
Si       2.76519492      -2.75125068       0.00957204       0.00000000
