10
Lattice="16.28999089631971 0.0 0.0 0.0 16.28999089631971 0.0 0.0 0.0 34.185847837958455" Properties=species:S:1:pos:R:3:initial_magmoms:R:1 pbc="T T T"
Si      -2.20403700       0.59153877      -0.34052542       0.00000000
Si       0.31649841      -2.05871391      -1.00390217       0.00000000
Si       0.06553467       0.18582003       2.38593421       0.00000000
Si       1.52906085       1.31142645      -1.29519994       0.00000000
Si       3.16547280       1.05529878       0.34756771       0.00000000
Si      -2.01891744       2.45858454       1.06810323       0.00000000
Si       2.06514846       1.46000754       2.39297650       0.00000000
Si      -3.27487644      -1.48900374       0.01326412       0.00000000
Si       0.39856743      -1.53614700      -3.27804860       0.00000000
Si      -2.27895471       1.33275006      -2.51826770       0.00000000
