10
Lattice="16.28999089631971 0.0 0.0 0.0 16.28999089631971 0.0 0.0 0.0 34.185847837958455" Properties=species:S:1:pos:R:3:initial_magmoms:R:1 pbc="T T T"
Si       1.35391077       1.36285398       1.38455496       0.00000000
Si      -1.36446669      -1.35508365       1.38530705       0.00000000
Si      -1.49662746       1.23955497      -1.44120436       0.00000000
Si       1.41270138      -1.47890394      -1.34440708       0.00000000
Si      -2.46806532      -0.53905239      -2.76114602       0.00000000
Si       2.69720046       2.70806589       0.00313826       0.00000000
Si      -2.70936909      -2.70607851       0.04480400       0.00000000
Si      -2.73276153       2.69583210       0.01945518       0.00000000
Si       2.70899442       0.00241092       2.74265690       0.00000000
Si      -0.00531054      -2.71241532       2.74361410       0.00000000
