10
Lattice="16.28999089631971 0.0 0.0 0.0 16.28999089631971 0.0 0.0 0.0 34.185847837958455" Properties=species:S:1:pos:R:3:initial_magmoms:R:1 pbc="T T T"
Si      -1.32424668      -1.39352805      -1.34034580       0.00000000
Si       1.35571896      -1.35386190       1.35899077       0.00000000
Si      -1.35879777       1.35910728       1.35964030       0.00000000
Si       1.39082391       1.34990343      -1.37564270       0.00000000
Si      -2.65509081      -0.12220758      -2.72742367       0.00000000
Si      -0.01433520       2.64391587      -2.76561954       0.00000000
Si      -2.71324611      -2.71120986       0.00307673       0.00000000
Si       2.71523349      -2.71210581      -0.00300836       0.00000000
Si      -0.00001629      -2.71321353       2.71774224       0.00000000
Si      -2.71495656       0.00171045       2.71757131       0.00000000
