10
Lattice="16.28999089631971 0.0 0.0 0.0 16.28999089631971 0.0 0.0 0.0 34.185847837958455" Properties=species:S:1:pos:R:3:initial_magmoms:R:1 pbc="T T T"
Si      -1.35615879      -1.35739683       1.35793101       0.00000000
Si      -1.35508365       1.36044306      -1.35810194       0.00000000
Si       1.35874890       1.35799956       1.35834124       0.00000000
Si       1.35879777      -1.35910728      -1.35964030       0.00000000
Si       2.71451673      -2.71296918      -0.00064953       0.00000000
Si       2.71573848       2.71282257      -0.00047860       0.00000000
Si      -2.71410948       0.00048870       2.71466551       0.00000000
Si       0.00061902      -2.71391400       2.71504155       0.00000000
Si      -2.71430496      -2.71482624       0.00095720       0.00000000
Si      -2.71554300       2.71458189       0.00000000       0.00000000
