10
Lattice="16.28999089631971 0.0 0.0 0.0 16.28999089631971 0.0 0.0 0.0 34.185847837958455" Properties=species:S:1:pos:R:3:initial_magmoms:R:1 pbc="T T T"
Si       0.79312752       0.49774095       2.13015556       0.00000000
Si       2.07640485      -0.52530363      -0.91166870       0.00000000
Si      -1.84176369      -1.40538717       0.40845274       0.00000000
Si      -0.80309700       2.25199476      -0.36623319       0.00000000
Si       3.09288456       1.59449778      -0.57353629       0.00000000
Si       2.15607924       2.35817298       1.52400595       0.00000000
Si      -3.59020197       0.04373865      -0.38206125       0.00000000
Si      -2.37773727       1.84086774      -2.02879446       0.00000000
Si      -2.08622772       2.51919963       1.63897302       0.00000000
Si      -1.04534559       1.28295153       3.33182296       0.00000000
