10
Lattice="16.28999089631971 0.0 0.0 0.0 16.28999089631971 0.0 0.0 0.0 34.185847837958455" Properties=species:S:1:pos:R:3:initial_magmoms:R:1 pbc="T T T"
Si      -0.16153164      -0.38693637       2.29448702       0.00000000
Si      -2.17688157       0.48000114      -0.68703337       0.00000000
Si       0.63627111      -1.83288564      -1.35512777       0.00000000
Si       1.43223309       1.78712703      -0.64987333       0.00000000
Si      -1.70015472       1.86285924      -2.53587342       0.00000000
Si      -1.23251769      -2.56042962       2.22406413       0.00000000
Si       0.63581499      -0.90121167      -3.57324356       0.00000000
Si      -3.12360750       2.00945295       0.77974544       0.00000000
Si       2.81105127      -2.51646291      -0.66159908       0.00000000
Si       1.94887044      -0.34140582       3.28221927       0.00000000
