10
Lattice="16.28999089631971 0.0 0.0 0.0 16.28999089631971 0.0 0.0 0.0 34.185847837958455" Properties=species:S:1:pos:R:3:initial_magmoms:R:1 pbc="T T T"
Si       1.76906142      -0.06449211       1.43635339       0.00000000
Si      -0.66184641       2.24494119      -0.01425551       0.00000000
Si       0.91973340      -0.23641677      -2.14352223       0.00000000
Si      -2.00161746      -1.32960609       0.38469356       0.00000000
Si      -2.16909495       1.48037004      -1.68310697       0.00000000
Si      -1.19066868      -0.28194732      -3.13125448       0.00000000
Si       1.54636083      -2.47676418      -1.97860961       0.00000000
Si       2.08244844      -2.32818309       1.70956683       0.00000000
Si      -3.58042797       0.26598312      -0.23536969       0.00000000
Si      -1.81218105       2.36459124       2.14697500       0.00000000
