10
Lattice="16.28999089631971 0.0 0.0 0.0 16.28999089631971 0.0 0.0 0.0 34.185847837958455" Properties=species:S:1:pos:R:3:initial_magmoms:R:1 pbc="T T T"
Si      -2.11040208      -0.04553055      -0.98773225       0.00000000
Si       0.62662743      -2.24034741       0.16491262       0.00000000
Si      -0.91973340       0.23641677       2.14352223       0.00000000
Si       1.29086847       1.88423172      -0.81919593       0.00000000
Si      -3.08882835       1.71678681       0.46041526       0.00000000
Si      -1.58157981       2.48135796       2.12926672       0.00000000
Si       0.84932802       0.17192466       3.57987561       0.00000000
Si       2.61868266       1.21876893       2.45892104       0.00000000
Si       3.00312666       0.92479959      -2.13952248       0.00000000
Si       2.26303938      -2.49647508       1.80768027       0.00000000
