10
Lattice="16.28999089631971 0.0 0.0 0.0 16.28999089631971 0.0 0.0 0.0 34.185847837958455" Properties=species:S:1:pos:R:3:initial_magmoms:R:1 pbc="T T T"
Si      -1.76906142       0.06449211      -1.43635339       0.00000000
Si       0.31338702      -2.26369098       0.27321345       0.00000000
Si      -0.39166047       1.28914173       1.86900972       0.00000000
Si       1.76935464       1.04684427      -1.12095458       0.00000000
Si       1.41371136      -2.66839974      -1.77219534       0.00000000
Si       2.06778744      -2.08130814       1.95898692       0.00000000
Si       2.91289635      -0.85768479      -1.90141792       0.00000000
Si       2.91988476       2.02036725       0.64395918       0.00000000
Si      -2.43090783       2.30943330      -1.45060889       0.00000000
Si      -0.84932802      -0.17192466      -3.57987561       0.00000000
