10
Lattice="16.28999089631971 0.0 0.0 0.0 16.28999089631971 0.0 0.0 0.0 34.185847837958455" Properties=species:S:1:pos:R:3:initial_magmoms:R:1 pbc="T T T"
Si      -1.20445002       1.40809131       1.47903102       0.00000000
Si       1.50275250      -1.30611591       1.45416080       0.00000000
Si      -1.89291429      -0.94200183      -1.45619969       0.00000000
Si       1.05762825       1.94789304      -1.33907891       0.00000000
Si      -2.45550410       2.77470828       0.00283743       0.00000000
Si      -2.57423051      -2.73944369       0.13182412       0.00000000
Si      -2.56230297       0.06019155       2.84990138       0.00000000
Si       0.15364728      -2.65977419       2.84853394       0.00000000
Si      -0.88725114      -0.93240702      -3.72162872       0.00000000
Si      -3.65204858       0.87332319      -1.23135924       0.00000000
