10
Lattice="16.28999089631971 0.0 0.0 0.0 16.28999089631971 0.0 0.0 0.0 34.185847837958455" Properties=species:S:1:pos:R:3:initial_magmoms:R:1 pbc="T T T"
Si       1.36720341      -0.89278974      -1.68618370       0.00000000
Si       0.20090457       2.38142600       0.28281968       0.00000000
Si       0.77967198      -0.96839163       2.08998716       0.00000000
Si      -2.29436505      -0.69976953      -0.43439981       0.00000000
Si      -0.99018765       2.52059147       2.25110515       0.00000000
Si       0.00902466       0.72793252       3.63122279       0.00000000
Si      -0.06802704      -0.98235216      -3.57143171       0.00000000
Si      -3.42753003      -0.23812722       1.57590009       0.00000000
Si       2.96367228       0.81065623      -2.22813225       0.00000000
Si      -0.59482935      -2.88877086       2.47751815       0.00000000
