10
Lattice="16.28999089631971 0.0 0.0 0.0 16.28999089631971 0.0 0.0 0.0 34.185847837958455" Properties=species:S:1:pos:R:3:initial_magmoms:R:1 pbc="T T T"
Si       1.35734796       1.35652369      -1.35635846       0.00000000
Si      -1.35687555       1.35751738       1.35734985       0.00000000
Si       1.35769005      -1.35748848       1.35728148       0.00000000
Si      -1.35843939      -1.35919194      -1.35782845       0.00000000
Si      -0.00024435       2.71264990       2.71469969       0.00000000
Si       2.71334385      -0.00009611       2.71466551       0.00000000
Si      -2.71443528       2.71483276       0.00000000       0.00000000
Si      -2.71516833      -2.71425676       0.00003419       0.00000000
Si      -2.71596654      -0.00025412       2.71353737       0.00000000
Si      -2.71595025       0.00113541      -2.71360575       0.00000000
