10
Lattice="16.28999089631971 0.0 0.0 0.0 16.28999089631971 0.0 0.0 0.0 34.185847837958455" Properties=species:S:1:pos:R:3:initial_magmoms:R:1 pbc="T T T"
Si       1.35337320       1.33382520       1.36213587       0.00000000
Si      -1.35943308       1.35365013      -1.35471754       0.00000000
Si       1.35415512      -1.35909588      -1.35475172       0.00000000
Si      -1.38054492      -1.34490240       1.37010118       0.00000000
Si       2.56321521      -0.18671598       2.75312461       0.00000000
Si      -0.00156384       2.71316466      -2.71234087       0.00000000
Si       2.71356336      -0.00130320      -2.71251180       0.00000000
Si       2.71707739       2.71099809       0.00451253       0.00000000
Si      -2.71606428      -0.00148239      -2.71206738       0.00000000
Si      -0.00149868      -2.71648825      -2.71213575       0.00000000
