10
Lattice="16.28999089631971 0.0 0.0 0.0 16.28999089631971 0.0 0.0 0.0 34.185847837958455" Properties=species:S:1:pos:R:3:initial_magmoms:R:1 pbc="T T T"
Si       1.49669262      -1.37313460      -1.09993027       0.00000000
Si       0.37769994       0.23980509       2.27062528       0.00000000
Si      -2.19227562      -0.65133936      -0.58796273       0.00000000
Si       0.51904827       2.33170173      -0.36872876       0.00000000
Si       0.05530455       2.63314818       2.08786764       0.00000000
Si       2.01650652       1.79963775      -2.18758781       0.00000000
Si      -1.47302325       2.96847783      -1.53354381       0.00000000
Si      -3.38336784      -0.51217389       1.38032275       0.00000000
Si       3.48930401      -0.07332129      -1.24398951       0.00000000
Si      -3.01842297       1.15067673      -1.90141792       0.00000000
