10
Lattice="16.28999089631971 0.0 0.0 0.0 16.28999089631971 0.0 0.0 0.0 34.185847837958455" Properties=species:S:1:pos:R:3:initial_magmoms:R:1 pbc="T T T"
Si      -0.37769994      -0.23980509      -2.27062528       0.00000000
Si       2.20076271       0.59746833       0.53176116       0.00000000
Si      -0.92786211      -1.49510597       1.54875652       0.00000000
Si      -0.32239539       2.39334309      -0.18275764       0.00000000
Si       0.14134833       2.09189664      -2.63935404       0.00000000
Si      -2.02439088       0.18598293       2.77083289       0.00000000
Si       1.67146803       2.28252222       2.17203324       0.00000000
Si      -2.76185547      -2.54463793       0.48981510       0.00000000
Si       3.26312713       1.21582044      -1.53979982       0.00000000
Si       3.44798931      -1.14595263       1.38254483       0.00000000
