10
Lattice="16.28999089631971 0.0 0.0 0.0 16.28999089631971 0.0 0.0 0.0 34.185847837958455" Properties=species:S:1:pos:R:3:initial_magmoms:R:1 pbc="T T T"
Si      -1.39878972      -1.23413854       1.50350267       0.00000000
Si       1.83804957      -1.44708142      -0.86059501       0.00000000
Si       1.48559913       1.41406974       1.58398988       0.00000000
Si      -1.09613781       0.55408806      -2.29903374       0.00000000
Si       0.93480165       1.32501231      -3.23904252       0.00000000
Si       1.66588056       3.00877929      -1.66122802       0.00000000
Si       0.18099819      -2.47670621       2.96124615       0.00000000
Si      -2.50862742       0.23553711       2.97988429       0.00000000
Si      -3.23900586      -2.19548149       0.10262597       0.00000000
Si       0.93944430      -3.33232217      -1.85892489       0.00000000
