10
Lattice="16.28999089631971 0.0 0.0 0.0 16.28999089631971 0.0 0.0 0.0 34.185847837958455" Properties=species:S:1:pos:R:3:initial_magmoms:R:1 pbc="T T T"
Si      -0.89860527      -1.88524074      -0.99832987       0.00000000
Si       1.36607518      -1.55439084       1.28745483       0.00000000
Si       2.20070148       0.50315249      -0.95723846       0.00000000
Si      -1.83804957       1.44708142       0.86059501       0.00000000
Si       2.42990178       0.23868597       2.48184749       0.00000000
Si       1.44185301       1.50548107      -2.93639504       0.00000000
Si      -0.48071790      -2.59527297       2.50096080       0.00000000
Si       1.30852750      -3.07084323      -1.48547848       0.00000000
Si      -0.90324792       2.77209374      -2.37844751       0.00000000
Si      -0.35245044       2.86115116       2.44458489       0.00000000
