10
Lattice="16.28999089631971 0.0 0.0 0.0 16.28999089631971 0.0 0.0 0.0 34.185847837958455" Properties=species:S:1:pos:R:3:initial_magmoms:R:1 pbc="T T T"
Si      -1.35322659       1.35764118       1.35820449       0.00000000
Si      -1.35653346      -1.35651717      -1.35769171       0.00000000
Si       1.35912907       1.35852084      -1.35728148       0.00000000
Si       1.36210777      -1.35868374       1.35916170       0.00000000
Si       2.72335961       0.00327429       2.68280428       0.00000000
Si      -2.71340901       0.00065160      -2.71466551       0.00000000
Si       0.00127062      -2.71357191      -2.71493899       0.00000000
Si       2.71555182       2.71443528      -0.00092302       0.00000000
Si       2.71592974      -2.71450044      -0.00160674       0.00000000
Si      -2.71440270      -2.71603170      -0.00006837       0.00000000
