10
Lattice="16.28999089631971 0.0 0.0 0.0 16.28999089631971 0.0 0.0 0.0 34.185847837958455" Properties=species:S:1:pos:R:3:initial_magmoms:R:1 pbc="T T T"
Si      -1.99207152       0.63677610      -1.16481504       0.00000000
Si       1.49745825      -0.53206398      -1.81885905       0.00000000
Si      -0.51904827      -2.33170173       0.36872876       0.00000000
Si      -0.46374372       0.30144645       2.45659640       0.00000000
Si       2.01117969       1.21454982       0.96178518       0.00000000
Si      -0.14134833      -2.09189664       2.63935404       0.00000000
Si       3.12177880      -0.87607620       1.09955422       0.00000000
Si      -2.61078201       1.22693022       2.23373873       0.00000000
Si      -2.77809660       2.38544244       0.17944162       0.00000000
Si      -1.18757358       1.20330972      -3.28392856       0.00000000
