10
Lattice="16.28999089631971 0.0 0.0 0.0 16.28999089631971 0.0 0.0 0.0 34.185847837958455" Properties=species:S:1:pos:R:3:initial_magmoms:R:1 pbc="T T T"
Si       1.34379468       1.32336702      -1.37767676       0.00000000
Si       1.35213190      -1.35552348       1.35129895       0.00000000
Si      -1.36029645       1.35483930       1.35133313       0.00000000
Si      -1.32641325      -1.36718712      -1.38347127       0.00000000
Si      -0.20983149       2.51543664      -2.70368159       0.00000000
Si       2.71208856      -0.00001629       2.70967437       0.00000000
Si      -0.00188964      -2.71459818       2.70974274       0.00000000
Si      -0.00294849       2.71494027       2.70984530       0.00000000
Si      -2.71728603       0.00001629       2.71015297       0.00000000
Si       2.71297637      -2.71533123      -0.00936693       0.00000000
