10
Lattice="16.28999089631971 0.0 0.0 0.0 16.28999089631971 0.0 0.0 0.0 34.185847837958455" Properties=species:S:1:pos:R:3:initial_magmoms:R:1 pbc="T T T"
Si      -1.93290624      -0.83761551       1.10632303       0.00000000
Si      -1.29516903       1.38728898      -1.46336022       0.00000000
Si       1.39421223      -1.32502860      -1.44876286       0.00000000
Si       1.69766235       1.09659393       1.33485555       0.00000000
Si      -2.73631275       2.56153734      -0.03927956       0.00000000
Si       0.48501846       2.48435532       2.81069361       0.00000000
Si       2.68356573       2.66747121      -0.15732336       0.00000000
Si      -2.67419898      -2.74580982      -0.01746898       0.00000000
Si      -2.66336613       0.03686427      -2.82932491       0.00000000
Si       0.05152527      -2.67586056      -2.82823096       0.00000000
