10
Lattice="16.28999089631971 0.0 0.0 0.0 16.28999089631971 0.0 0.0 0.0 34.185847837958455" Properties=species:S:1:pos:R:3:initial_magmoms:R:1 pbc="T T T"
Si      -2.07640485       0.52530363       0.91166870       0.00000000
Si       1.19496924      -1.74506625       1.01648257       0.00000000
Si       1.01647971       2.11980141       0.33813241       0.00000000
Si      -1.28327733       1.02304458       3.04182425       0.00000000
Si      -0.15240924      -3.67746750       0.76839573       0.00000000
Si       3.22677207       1.64885751       1.02926808       0.00000000
Si       0.07967439       2.88347661       2.43567465       0.00000000
Si       1.97721504      -0.99419499       3.14564673       0.00000000
Si       3.16882854      -2.25767997      -0.08946441       0.00000000
Si      -1.43601237       0.38250549      -3.68233066       0.00000000
