10
Lattice="16.28999089631971 0.0 0.0 0.0 16.28999089631971 0.0 0.0 0.0 34.185847837958455" Properties=species:S:1:pos:R:3:initial_magmoms:R:1 pbc="T T T"
Si       0.67908123       0.44409798      -2.20515935       0.00000000
Si      -1.49918499      -1.81071495       0.12922258       0.00000000
Si      -1.14354171       1.90452906       0.78046334       0.00000000
Si       1.55461986      -0.29203083       1.81581651       0.00000000
Si       1.40478444      -1.87237260      -2.63624313       0.00000000
Si      -2.91289635       0.85768479       1.90141792       0.00000000
Si       2.22894573       2.25194589      -1.75058987       0.00000000
Si      -2.59950933      -1.40600619       2.17463137       0.00000000
Si      -3.13559694      -1.55458728      -1.51354507       0.00000000
Si       0.00698841       2.87805204       2.54537709       0.00000000
