10
Lattice="16.28999089631971 0.0 0.0 0.0 16.28999089631971 0.0 0.0 0.0 34.185847837958455" Properties=species:S:1:pos:R:3:initial_magmoms:R:1 pbc="T T T"
Si      -1.33991766      -1.36161594      -1.35936681       0.00000000
Si       1.29450114      -1.45002177       1.31362612       0.00000000
Si       1.37810142       1.34966772      -1.35440986       0.00000000
Si      -1.49869629       1.22665329       1.34747013       0.00000000
Si      -0.07915311       2.38123052       2.83906788       0.00000000
Si      -2.69832447      -0.00646713      -2.71599876       0.00000000
Si      -2.68423362      -2.73020400       0.00758926       0.00000000
Si       0.01487277       2.71021847      -2.71558853       0.00000000
Si       0.01490535      -2.71995759      -2.71657992       0.00000000
Si      -2.71982727       2.72441195       0.00926437       0.00000000
