10
Lattice="16.28999089631971 0.0 0.0 0.0 16.28999089631971 0.0 0.0 0.0 34.185847837958455" Properties=species:S:1:pos:R:3:initial_magmoms:R:1 pbc="T T T"
Si      -1.70453414      -0.99030168       1.32592077       0.00000000
Si      -1.52425271       0.60440787      -1.91929713       0.00000000
Si       1.75913429      -1.81532502      -0.22484045       0.00000000
Si       1.19654448       1.90138509       1.23419667       0.00000000
Si      -0.26529218      -2.19918258       2.72432100       0.00000000
Si       0.22744261       1.46952090      -3.22906025       0.00000000
Si       2.44759856       0.53476812       2.71039026       0.00000000
Si       3.65204858      -0.87332319       1.23135924       0.00000000
Si      -3.19013327      -2.40437142      -0.25806911       0.00000000
Si       1.07781808      -3.61276688       1.36318336       0.00000000
