10
Lattice="16.28999089631971 0.0 0.0 0.0 16.28999089631971 0.0 0.0 0.0 34.185847837958455" Properties=species:S:1:pos:R:3:initial_magmoms:R:1 pbc="T T T"
Si       1.35718506      -1.35742941       1.36070006       0.00000000
Si      -1.36084446       1.35980775       1.36066588       0.00000000
Si       1.35132066       1.36404315      -1.37051824       0.00000000
Si      -1.33747742      -1.37893221      -1.36947557       0.00000000
Si       2.73870738      -0.04686633      -2.68236670       0.00000000
Si      -2.71297637       2.71533123       0.00936693       0.00000000
Si      -2.71498004      -2.71386513      -0.00146999       0.00000000
Si      -0.00048544      -2.71446786       2.71924641       0.00000000
Si       2.71453302       0.00042354       2.71928060       0.00000000
Si      -2.71486601       0.00073305       2.71910967       0.00000000
