10
Lattice="16.28999089631971 0.0 0.0 0.0 16.28999089631971 0.0 0.0 0.0 34.185847837958455" Properties=species:S:1:pos:R:3:initial_magmoms:R:1 pbc="T T T"
Si      -2.14533991      -0.93963978       0.34691818       0.00000000
Si       0.93091974      -1.37218815      -1.72624954       0.00000000
Si      -0.58258904       2.17355841      -0.97282722       0.00000000
Si       0.70287603       0.10019979       2.52243838       0.00000000
Si      -1.10116816      -2.88230373       1.14820071       0.00000000
Si      -2.98880353       0.26407719       2.19972379       0.00000000
Si       1.25336400      -3.55700295      -0.72802222       0.00000000
Si      -1.47101404       1.60433694      -3.21948821       0.00000000
Si       2.74339401      -0.19658772      -2.75483390       0.00000000
Si       2.56993809       1.55227410       2.56954650       0.00000000
