10
Lattice="16.28999089631971 0.0 0.0 0.0 16.28999089631971 0.0 0.0 0.0 34.56409401068381" Properties=species:S:1:pos:R:3:initial_magmoms:R:1 pbc="T T T"
Si       1.34198649       1.35881777       1.38185597       0.00000000
Si      -1.36880635      -1.36026735       1.38417176       0.00000000
Si      -1.34919807       1.40989669      -1.42359905       0.00000000
Si       1.47461967      -1.26343959      -1.43925314       0.00000000
Si      -0.16669557      -2.50757205      -2.55357008       0.00000000
Si       2.69648370       2.72271431       0.01632809       0.00000000
Si       2.70927135      -2.72232312       0.00381588       0.00000000
Si      -2.73021119       2.70503966       0.01680162       0.00000000
Si      -2.72511615      -2.71041513       0.02758908       0.00000000
Si       2.70490563      -0.00156175       2.74112429       0.00000000
