10
Lattice="16.28999089631971 0.0 0.0 0.0 16.28999089631971 0.0 0.0 0.0 34.56409401068381" Properties=species:S:1:pos:R:3:initial_magmoms:R:1 pbc="T T T"
Si       0.48555603      -0.07089408       2.24801537       0.00000000
Si      -2.04794948       0.86820813      -0.82328262       0.00000000
Si      -0.02106297      -2.30513274      -0.59612726       0.00000000
Si       2.31058989       1.41758838      -1.34119129       0.00000000
Si      -1.13544558       1.29165039      -2.95588841       0.00000000
Si       0.76861107      -1.91632302      -2.76671902       0.00000000
Si       1.86486291      -3.11565798       0.84644057       0.00000000
Si       0.70825662       2.72319930      -2.44789963       0.00000000
Si       2.71016730      -0.60779619      -2.51236171       0.00000000
Si      -0.68186682       1.57724667       3.38765333       0.00000000
