10
Lattice="16.28999089631971 0.0 0.0 0.0 16.28999089631971 0.0 0.0 0.0 34.56409401068381" Properties=species:S:1:pos:R:3:initial_magmoms:R:1 pbc="T T T"
Si       1.35692442       1.35714108      -1.35722904       0.00000000
Si       1.35692442      -1.35720837       1.35764381       0.00000000
Si      -1.35814617       1.35710850       1.35754012       0.00000000
Si      -1.35778779      -1.35767049      -1.35874986       0.00000000
Si      -2.71490769      -0.00118428       2.71390505       0.00000000
Si       2.71533123      -0.00055875       2.71438895       0.00000000
Si       2.71479366      -2.71543127       0.00027651       0.00000000
Si       2.71495656       2.71530354      -0.00006913       0.00000000
Si      -2.71536381      -2.71504031      -0.00006913       0.00000000
Si      -2.71557558       2.71492887       0.00027651       0.00000000
