10
Lattice="16.28999089631971 0.0 0.0 0.0 16.28999089631971 0.0 0.0 0.0 34.56409401068381" Properties=species:S:1:pos:R:3:initial_magmoms:R:1 pbc="T T T"
Si       0.68432661      -1.26567436      -1.79709194       0.00000000
Si      -1.11024495      -1.41487137       1.44858199       0.00000000
Si       2.02494474       0.46244378       1.11631717       0.00000000
Si      -1.75835889       1.17239456      -1.10456537       0.00000000
Si      -0.43435656       1.97513318      -2.87673659       0.00000000
Si      -2.04859782       0.33187943       2.84656212       0.00000000
Si      -1.21241583      -2.59187325      -2.14072836       0.00000000
Si      -2.27900358      -2.86567557      -0.02464421       0.00000000
Si       3.66906186      -0.57201846      -0.33440780       0.00000000
Si       2.61472419      -2.47657263      -1.22916900       0.00000000
