10
Lattice="16.28999089631971 0.0 0.0 0.0 16.28999089631971 0.0 0.0 0.0 34.56409401068381" Properties=species:S:1:pos:R:3:initial_magmoms:R:1 pbc="T T T"
Si      -1.34938215      -1.34306163       1.38629054       0.00000000
Si       1.36796904       1.36904418       1.38680901       0.00000000
Si      -1.19079900       1.43829297      -1.55081918       0.00000000
Si       1.27975869      -1.50097689      -1.44956361       0.00000000
Si       2.37182400       0.13100418      -2.76504753       0.00000000
Si       0.71521245       2.15119224      -2.96462072       0.00000000
Si      -2.68644906       2.71179630       0.00839908       0.00000000
Si      -2.71635750      -2.69413794       0.01827405       0.00000000
Si       2.72499120      -2.70537804       0.01560915       0.00000000
Si       2.72355768       2.71318095       0.03799287       0.00000000
