10
Lattice="16.28999089631971 0.0 0.0 0.0 16.28999089631971 0.0 0.0 0.0 34.56409401068381" Properties=species:S:1:pos:R:3:initial_magmoms:R:1 pbc="T T T"
Si       1.35778779       1.35685926      -1.35816227       0.00000000
Si      -1.35791811      -1.35925389      -1.35795488       0.00000000
Si      -1.35886293       1.35672894       1.36033981       0.00000000
Si       1.36138788      -1.36357074       1.36172237       0.00000000
Si      -2.71435383       2.71419093      -0.00069128       0.00000000
Si       2.72978046       0.00809613       2.69897335       0.00000000
Si       0.00024435       2.71347417      -2.71552956       0.00000000
Si      -2.71534752      -0.00143352      -2.71521849       0.00000000
Si       2.71518462      -0.00105885      -2.71556413       0.00000000
Si       0.00022806      -2.71636239      -2.71549500       0.00000000
