10
Lattice="16.28999089631971 0.0 0.0 0.0 16.28999089631971 0.0 0.0 0.0 34.56409401068381" Properties=species:S:1:pos:R:3:initial_magmoms:R:1 pbc="T T T"
Si       0.08526186      -2.18817054       0.70458945       0.00000000
Si      -0.59926023       0.36339732       2.25921414       0.00000000
Si       1.93921047       1.36466217      -0.12159655       0.00000000
Si      -1.82995344       0.52497783      -1.43116168       0.00000000
Si       1.24093962      -2.72230335      -1.37340504       0.00000000
Si      -0.37056492       1.94756724      -2.67927181       0.00000000
Si       2.64209139       1.19814579       2.08155460       0.00000000
Si       1.00369206       3.31928298      -1.07560064       0.00000000
Si       2.27965518      -0.98569161      -2.70467643       0.00000000
Si      -3.49415613       1.67523102      -0.22010427       0.00000000
