10
Lattice="16.28999089631971 0.0 0.0 0.0 16.28999089631971 0.0 0.0 0.0 34.56409401068381" Properties=species:S:1:pos:R:3:initial_magmoms:R:1 pbc="T T T"
Si      -1.66420269       1.15025319       1.21105740       0.00000000
Si      -1.35829278      -1.46124558      -1.29978348       0.00000000
Si       1.82995344      -0.52497783       1.43116168       0.00000000
Si       1.45938852       1.42258941      -1.24811013       0.00000000
Si       0.00812871       2.61698850      -2.66036524       0.00000000
Si       2.71158453      -0.09058869      -2.63568646       0.00000000
Si      -2.72241901      -0.09905949      -2.66071088       0.00000000
Si      -2.73901037       2.68236027      -0.10835850       0.00000000
Si      -0.00363267      -2.80987839      -2.64888995       0.00000000
Si      -2.65739747      -2.84330547       0.10016680       0.00000000
