10
Lattice="16.28999089631971 0.0 0.0 0.0 16.28999089631971 0.0 0.0 0.0 34.56409401068381" Properties=species:S:1:pos:R:3:initial_magmoms:R:1 pbc="T T T"
Si      -2.14679394      -0.57736647      -0.67828616       0.00000000
Si      -0.36435843       1.98197172       1.22671495       0.00000000
Si       1.13033052       0.74699424      -1.97945221       0.00000000
Si       0.65495574      -1.79051535       1.49707544       0.00000000
Si       1.60397856      -0.33365178       3.14021882       0.00000000
Si      -2.72829807       1.46210895      -1.73933531       0.00000000
Si      -0.35961804       1.02081285       3.38341193       0.00000000
Si      -0.72286875       1.96462287      -2.96342338       0.00000000
Si       1.73429856       3.00425067       1.14673359       0.00000000
Si       1.82866653      -3.16553796      -0.05592474       0.00000000
