10
Lattice="16.28999089631971 0.0 0.0 0.0 16.28999089631971 0.0 0.0 0.0 34.56409401068381" Properties=species:S:1:pos:R:3:initial_magmoms:R:1 pbc="T T T"
Si       1.60322922      -1.58493555      -0.73835859       0.00000000
Si      -0.71224767       1.41929883      -1.78171091       0.00000000
Si       1.26306144       0.83528604       1.87413535       0.00000000
Si      -2.13506514      -1.16177022       0.28207773       0.00000000
Si       0.17949951       2.88862425       2.31420564       0.00000000
Si       1.60495596      -3.22519194       0.93305824       0.00000000
Si      -1.66127049      -0.03756474      -3.42485430       0.00000000
Si      -3.24781875      -0.91613331      -1.81223103       0.00000000
Si       0.15682383      -2.74734108       2.75607327       0.00000000
Si      -1.70562816      -3.29685165       1.24251075       0.00000000
