10
Lattice="16.28999089631971 0.0 0.0 0.0 16.28999089631971 0.0 0.0 0.0 34.56409401068381" Properties=species:S:1:pos:R:3:initial_magmoms:R:1 pbc="T T T"
Si      -0.39835566      -2.16929043      -1.12246958       0.00000000
Si      -1.91008395       0.57560715       1.46862918       0.00000000
Si       0.70788195       1.41333669      -2.00440750       0.00000000
Si       1.28252799       2.61379566       1.57505208       0.00000000
Si       2.93913954       0.59360760       1.77462527       0.00000000
Si      -0.62348346       1.90089639       2.98885362       0.00000000
Si       1.84707423      -1.03837347       3.09010919       0.00000000
Si      -0.37567998       3.46667490      -1.56433721       0.00000000
Si       1.07632917      -3.15459108       1.93429665       0.00000000
Si      -3.35319876       2.01341142       0.18792508       0.00000000
