10
Lattice="16.28999089631971 0.0 0.0 0.0 16.28999089631971 0.0 0.0 0.0 34.56409401068381" Properties=species:S:1:pos:R:3:initial_magmoms:R:1 pbc="T T T"
Si      -0.53958996       1.90001673       1.25111721       0.00000000
Si      -1.92046068      -1.36715454       0.15692107       0.00000000
Si       0.16448013       0.44308800      -2.33456391       0.00000000
Si       2.04286374      -0.93675645       0.83164713       0.00000000
Si      -1.31649264       0.89010189       3.28310687       0.00000000
Si      -1.34315937      -3.23657865      -1.19215083       0.00000000
Si       3.41542656       0.94389147       1.23801741       0.00000000
Si       2.53058634       0.79094466      -2.79329882       0.00000000
Si      -3.77365995      -0.14952591      -0.82705010       0.00000000
Si       1.57999968      -2.12995008       2.87974367       0.00000000
