10
Lattice="16.28999089631971 0.0 0.0 0.0 16.28999089631971 0.0 0.0 0.0 34.56409401068381" Properties=species:S:1:pos:R:3:initial_magmoms:R:1 pbc="T T T"
Si      -2.09865699      -1.02227895       0.07998136       0.00000000
Si       0.16454529       1.81283265       1.51041719       0.00000000
Si       1.26975663      -1.83798441       0.86831965       0.00000000
Si       0.77690268       1.00991484      -2.03198966       0.00000000
Si       2.50836678       1.33788141       1.50350437       0.00000000
Si       2.31919101      -0.71860077       2.62466051       0.00000000
Si       1.31649264      -0.89010189      -3.28310687       0.00000000
Si      -2.09391660      -1.98343782       2.23667834       0.00000000
Si      -1.73429856      -3.00425067      -1.14673359       0.00000000
Si      -3.61823706       0.80216847      -0.14669010       0.00000000
