10
Lattice="16.28999089631971 0.0 0.0 0.0 16.28999089631971 0.0 0.0 0.0 34.56409401068381" Properties=species:S:1:pos:R:3:initial_magmoms:R:1 pbc="T T T"
Si       1.89674244       1.32619889       0.34363641       0.00000000
Si       1.31641119      -1.93852629      -0.12961542       0.00000000
Si      -1.06658775      -0.27380232       2.11608415       0.00000000
Si      -0.92812275       1.39681116      -2.41247142       0.00000000
Si       1.26864891       2.45938668      -1.85543617       0.00000000
Si      -2.14951437       2.74127210      -0.40274105       0.00000000
Si       1.21241583       2.59187325       2.14072836       0.00000000
Si       2.16694467      -1.50710193      -2.44879830       0.00000000
Si      -0.33593238      -3.55770342      -0.48980805       0.00000000
Si       0.10217088       1.17700188       3.58931035       0.00000000
