10
Lattice="16.28999089631971 0.0 0.0 0.0 16.28999089631971 0.0 0.0 0.0 34.56409401068381" Properties=species:S:1:pos:R:3:initial_magmoms:R:1 pbc="T T T"
Si      -1.35593073       1.35902583       1.36099653       0.00000000
Si       1.35866745      -1.35700587       1.36110022       0.00000000
Si      -1.35307998      -1.35878148      -1.36898775       0.00000000
Si       1.35811359       1.36650294      -1.38221198       0.00000000
Si      -2.71466334      -2.70971607      -0.00114062       0.00000000
Si      -2.71010214       2.71564074       0.00221210       0.00000000
Si      -2.71326240       0.00115659       2.71715408       0.00000000
Si       0.00206883      -2.71405246       2.71760341       0.00000000
Si       2.71875213      -2.71412414       0.00148626       0.00000000
Si       2.71365336       2.71985985      -0.00010369       0.00000000
