10
Lattice="16.28999089631971 0.0 0.0 0.0 16.28999089631971 0.0 0.0 0.0 34.56409401068381" Properties=species:S:1:pos:R:3:initial_magmoms:R:1 pbc="T T T"
Si       1.09206531       1.63198107      -1.31548392       0.00000000
Si       1.44523251      -1.20440115       1.46517276       0.00000000
Si      -1.27975869       1.50097689       1.44956361       0.00000000
Si      -0.77074506      -2.11621761      -1.15581254       0.00000000
Si      -1.84707423       1.03837347      -3.09010919       0.00000000
Si       0.08364915      -2.55533574       2.83301990       0.00000000
Si       2.81574279      -2.57627327       0.07713328       0.00000000
Si       2.65111605       0.38955906      -2.74457175       0.00000000
Si      -2.47055769       2.93926986      -0.10125557       0.00000000
Si      -2.76245820      -2.69586631       0.13784514       0.00000000
