10
Lattice="16.28999089631971 0.0 0.0 0.0 16.28999089631971 0.0 0.0 0.0 34.56409401068381" Properties=species:S:1:pos:R:3:initial_magmoms:R:1 pbc="T T T"
Si      -1.32708114       1.28767563       1.39780731       0.00000000
Si       1.33918461       1.34920296      -1.34468226       0.00000000
Si       1.39672089      -1.21590189       1.43244055       0.00000000
Si      -1.36839258      -1.37166687      -1.33725098       0.00000000
Si      -0.57640536      -2.13503256       2.60039650       0.00000000
Si      -2.36579670      -0.44893611       2.72907870       0.00000000
Si       2.68973964       2.70817992       0.02599221       0.00000000
Si       2.70029556      -0.00868257      -2.69897335       0.00000000
Si       2.68418475      -2.72171528       0.03197180       0.00000000
Si      -0.01200573       2.70612738      -2.70014853       0.00000000
