10
Lattice="16.28999089631971 0.0 0.0 0.0 16.28999089631971 0.0 0.0 0.0 34.56409401068381" Properties=species:S:1:pos:R:3:initial_magmoms:R:1 pbc="T T T"
Si      -0.93989553      -1.72791940       1.32766777       0.00000000
Si       1.82104281       0.99893538       1.28671967       0.00000000
Si       0.99619866      -1.70596210      -1.57076613       0.00000000
Si      -1.91076324       1.71932805      -0.18128877       0.00000000
Si      -0.54128412       0.21357819      -3.17848130       0.00000000
Si       0.40933512       2.29283379       2.76188146       0.00000000
Si      -2.32090865      -0.43277643       2.76806844       0.00000000
Si      -2.41995185      -2.94591781      -0.12747245       0.00000000
Si      -1.05408680       3.50884971       1.33546544       0.00000000
Si      -3.63971447       0.93846690       1.34890742       0.00000000
