10
Lattice="16.28999089631971 0.0 0.0 0.0 16.28999089631971 0.0 0.0 0.0 34.56409401068381" Properties=species:S:1:pos:R:3:initial_magmoms:R:1 pbc="T T T"
Si       1.35733167       1.35786924      -1.35615755       0.00000000
Si       1.35708732      -1.35754344       1.35760924       0.00000000
Si      -1.35739683       1.35791811       1.35740186       0.00000000
Si      -1.35803214      -1.35816246      -1.35715991       0.00000000
Si      -0.00140094      -2.71087266      -2.71829469       0.00000000
Si       2.71432125       2.71500543       0.00044933       0.00000000
Si       0.00316026       2.71448415      -2.71494197       0.00000000
Si      -2.71494027       2.71453302       0.00003456       0.00000000
Si      -2.71419093       0.00237834      -2.71546044       0.00000000
Si       0.00259011       2.71528236       2.71438895       0.00000000
