10
Lattice="16.28999089631971 0.0 0.0 0.0 16.28999089631971 0.0 0.0 0.0 34.56409401068381" Properties=species:S:1:pos:R:3:initial_magmoms:R:1 pbc="T T T"
Si      -1.35648459       1.36013355      -1.36016699       0.00000000
Si       1.36013355      -1.35567009      -1.36123848       0.00000000
Si      -1.35296595      -1.35404109       1.37454566       0.00000000
Si       1.35070164       1.37334474       1.37468392       0.00000000
Si      -2.60516196       0.15913701       2.76212199       0.00000000
Si       2.71132389      -2.71259451      -0.00577221       0.00000000
Si      -2.71650411      -2.71316466       0.00027651       0.00000000
Si       2.71309950       2.71671588      -0.00293795       0.00000000
Si       0.00014661      -2.71303434      -2.71822556       0.00000000
Si      -2.71852407       2.71422351       0.00006913       0.00000000
