10
Lattice="16.28999089631971 0.0 0.0 0.0 16.28999089631971 0.0 0.0 0.0 34.56409401068381" Properties=species:S:1:pos:R:3:initial_magmoms:R:1 pbc="T T T"
Si       1.35119034      -1.35692442       1.35546627       0.00000000
Si       1.35457866       1.35692442      -1.35719447       0.00000000
Si      -1.35998694      -1.35736425      -1.35698709       0.00000000
Si      -1.36013355       1.35567009       1.36123848       0.00000000
Si       0.01200573      -2.70612738       2.70014853       0.00000000
Si       2.71145421       2.71391400       0.00076041       0.00000000
Si       2.71173114      -0.00027693      -2.71393961       0.00000000
Si       2.71230129      -2.71480995       0.00117518       0.00000000
Si       2.70174537       0.00205254       2.72614075       0.00000000
Si      -0.00273672       2.71396287      -2.71483828       0.00000000
