10
Lattice="16.28999089631971 0.0 0.0 0.0 16.28999089631971 0.0 0.0 0.0 34.56409401068381" Properties=species:S:1:pos:R:3:initial_magmoms:R:1 pbc="T T T"
Si       1.32708114      -1.28767563      -1.39780731       0.00000000
Si      -1.39802409       1.42008075      -1.36217171       0.00000000
Si      -1.03871556      -1.73661174       1.33127139       0.00000000
Si       1.42148169       1.39417965       1.39922444       0.00000000
Si      -0.34044471       2.35035378       2.58307988       0.00000000
Si      -2.27965518       0.98569161       2.70467643       0.00000000
Si       2.72380203      -2.50357752       0.03463324       0.00000000
Si       0.75067578      -3.42270819       1.20258919       0.00000000
Si      -0.04131144      -2.65934250      -2.73505829       0.00000000
Si       2.66626575       0.06152733      -2.74248957       0.00000000
