10
Lattice="16.28999089631971 0.0 0.0 0.0 16.28999089631971 0.0 0.0 0.0 34.56409401068381" Properties=species:S:1:pos:R:3:initial_magmoms:R:1 pbc="T T T"
Si      -0.68009121       2.17831509      -0.39548258       0.00000000
Si       0.84773160      -0.85076154      -2.08404321       0.00000000
Si       0.58896495       0.05005917       2.33629211       0.00000000
Si       0.33708897      -2.27092374       2.05998659       0.00000000
Si      -1.67764194      -3.10018085       0.78353389       0.00000000
Si       1.38750075       3.25291752      -0.92427895       0.00000000
Si      -1.35713619       0.74890017       3.56781147       0.00000000
Si      -1.09796229      -1.54453635      -3.47759913       0.00000000
Si      -2.40028263       2.35322082      -2.11300794       0.00000000
Si       1.51604514       0.91582380      -3.56995444       0.00000000
