10
Lattice="16.28999089631971 0.0 0.0 0.0 16.28999089631971 0.0 0.0 0.0 34.56409401068381" Properties=species:S:1:pos:R:3:initial_magmoms:R:1 pbc="T T T"
Si       0.50080347       2.24135739       0.26140839       0.00000000
Si      -0.06260247      -0.95270436       2.17124847       0.00000000
Si       1.94610114      -0.69884100      -1.23151936       0.00000000
Si      -2.15264205       0.32185782      -1.13740128       0.00000000
Si       0.27497520       2.79544545      -2.03243899       0.00000000
Si       1.69422516      -3.01982391      -1.50782488       0.00000000
Si      -0.64936827      -3.19906278       1.90327290       0.00000000
Si       1.35713619      -0.74890017      -3.56781147       0.00000000
Si      -0.86201793       3.30454053       1.92508286       0.00000000
Si      -2.10219192       2.39397840      -2.29381282       0.00000000
