10
Lattice="16.28999089631971 0.0 0.0 0.0 16.28999089631971 0.0 0.0 0.0 34.56409401068381" Properties=species:S:1:pos:R:3:initial_magmoms:R:1 pbc="T T T"
Si      -1.08356193       2.05333821       0.44007029       0.00000000
Si       2.27545236       0.57611214      -0.53754109       0.00000000
Si      -1.26306144      -0.83528604      -1.87413535       0.00000000
Si      -0.70788195      -1.41333669       2.00440750       0.00000000
Si       0.34016778      -2.42022159      -2.61249394       0.00000000
Si       0.57464604       1.20045897       3.57945958       0.00000000
Si      -1.10623761      -3.58262712       0.88193792       0.00000000
Si       2.35820556       2.01243402      -2.44793420       0.00000000
Si      -0.60284403       3.84087249      -1.03716535       0.00000000
Si       3.66531516      -1.16708076      -1.34288493       0.00000000
