10
Lattice="16.28999089631971 0.0 0.0 0.0 16.28999089631971 0.0 0.0 0.0 34.56409401068381" Properties=species:S:1:pos:R:3:initial_magmoms:R:1 pbc="T T T"
Si      -1.35487188      -1.33827237       1.38638041       0.00000000
Si       1.35671265       1.37805255       1.37870718       0.00000000
Si      -1.52381547       1.15430940      -1.41042666       0.00000000
Si       1.37671677      -1.50939882      -1.42906709       0.00000000
Si       0.13603779       2.31474384      -2.55266139       0.00000000
Si      -2.69478954      -2.70925506       0.00803961       0.00000000
Si       2.71521720      -2.70787041       0.03763341       0.00000000
Si      -0.00356751      -2.69641854       2.74450812       0.00000000
Si      -2.71191033       2.72976417       0.00540237       0.00000000
Si       2.72692971       2.72373687       0.00943600       0.00000000
