10
Lattice="16.28999089631971 0.0 0.0 0.0 16.28999089631971 0.0 0.0 0.0 34.56409401068381" Properties=species:S:1:pos:R:3:initial_magmoms:R:1 pbc="T T T"
Si      -1.50757434       1.10275155      -1.42891501       0.00000000
Si       0.98298747      -1.64346552      -1.52724991       0.00000000
Si       1.71993078       1.76062320      -0.18778683       0.00000000
Si      -0.98220555      -0.91390158       2.38945172       0.00000000
Si      -2.32769439       2.58336594       0.28674388       0.00000000
Si      -0.33293502      -3.15069777       2.05687582       0.00000000
Si       2.25326538      -0.30527460      -3.03697582       0.00000000
Si       3.51315027       0.86291388      -1.45058671       0.00000000
Si       2.07949995       2.64632679       1.97551190       0.00000000
Si      -0.24496902       3.64767309       1.41201316       0.00000000
