10
Lattice="16.28999089631971 0.0 0.0 0.0 16.28999089631971 0.0 0.0 0.0 34.56409401068381" Properties=species:S:1:pos:R:3:initial_magmoms:R:1 pbc="T T T"
Si      -1.35634450      -1.35579802       1.35715991       0.00000000
Si       1.35793440       1.35600547       1.35660688       0.00000000
Si      -1.35724370       1.35758071      -1.35709078       0.00000000
Si       1.35747828      -1.35785056      -1.35736729       0.00000000
Si      -2.71248985      -0.00032537       2.71456177       0.00000000
Si      -0.00004887       2.71442857      -2.71314464       0.00000000
Si       2.71469592       2.71429825       0.00024195       0.00000000
Si      -0.00083079      -2.71474240      -2.71428526       0.00000000
Si      -2.71454021      -0.00024960      -2.71463090       0.00000000
Si      -2.71486415       2.71437970       0.00020738       0.00000000
