10
Lattice="16.28999089631971 0.0 0.0 0.0 16.28999089631971 0.0 0.0 0.0 34.56409401068381" Properties=species:S:1:pos:R:3:initial_magmoms:R:1 pbc="T T T"
Si       1.35238928       1.29608127      -1.40801551       0.00000000
Si       1.46342192      -1.21601592       1.42641602       0.00000000
Si      -1.26774754       1.49144724       1.41310884       0.00000000
Si      -0.85667644      -1.78952166      -1.51675421       0.00000000
Si       0.61477808       0.35841258      -3.52783258       0.00000000
Si      -2.58562766      -2.57038281       0.01344198       0.00000000
Si       0.09754289      -2.57769702       2.79883253       0.00000000
Si       2.69748716       2.69190621       0.06200456       0.00000000
Si       2.87512961      -2.50991433      -0.04874577       0.00000000
Si      -2.62203581       0.14344974       2.79834864       0.00000000
