10
Lattice="16.28999089631971 0.0 0.0 0.0 16.28999089631971 0.0 0.0 0.0 34.56409401068381" Properties=species:S:1:pos:R:3:initial_magmoms:R:1 pbc="T T T"
Si      -1.12516659       2.00329533       0.29815004       0.00000000
Si      -1.44471123      -1.46105010      -1.10757245       0.00000000
Si       0.77779863      -0.98010414       1.97406020       0.00000000
Si       1.58206851      -0.35313462      -1.74234239       0.00000000
Si      -0.10358811      -1.24615242      -3.08028465       0.00000000
Si       0.86596011       3.32044350       0.39734905       0.00000000
Si       1.85054400       0.95682573       2.94831887       0.00000000
Si       2.81856096      -2.18372337      -0.83354816       0.00000000
Si       1.81855044      -2.99933109       1.10947347       0.00000000
Si       2.79503820       2.15689374       1.11759604       0.00000000
