10
Lattice="16.28999089631971 0.0 0.0 0.0 16.28999089631971 0.0 0.0 0.0 34.56409401068381" Properties=species:S:1:pos:R:3:initial_magmoms:R:1 pbc="T T T"
Si       1.35011520       1.34890811      -1.36733558       0.00000000
Si       1.35563751      -1.35746215       1.35840422       0.00000000
Si      -1.36008468       1.35711827       1.35961396       0.00000000
Si      -1.35361755      -1.36742857      -1.36622953       0.00000000
Si       2.71447993       2.71283723      -0.00110605       0.00000000
Si       2.71152004      -2.71639890       0.00003456       0.00000000
Si       2.71293401       0.00036815       2.71594433       0.00000000
Si      -0.00211770       2.71471058       2.71611715       0.00000000
Si      -0.00192222      -2.71509570       2.71584064       0.00000000
Si      -2.71668330       0.00007168       2.71611715       0.00000000
