10
Lattice="16.28999089631971 0.0 0.0 0.0 16.28999089631971 0.0 0.0 0.0 34.56409401068381" Properties=species:S:1:pos:R:3:initial_magmoms:R:1 pbc="T T T"
Si      -1.34338743      -1.35590825      -1.37409633       0.00000000
Si       1.37536470       1.35444671      -1.37392350       0.00000000
Si       1.40949225      -1.34398961       1.37413089       0.00000000
Si      -1.28746386       1.50581339       1.40046874       0.00000000
Si       2.33640954       0.42425513       2.60547743       0.00000000
Si       0.65823003       2.19958820       2.79402466       0.00000000
Si      -2.68418475       2.72171528      -0.03197180       0.00000000
Si      -2.70681156      -2.70994806       0.00428595       0.00000000
Si      -2.69840592      -0.00330198      -2.73205121       0.00000000
Si       0.01611081       2.71303271      -2.73094516       0.00000000
