10
Lattice="16.28999089631971 0.0 0.0 0.0 16.28999089631971 0.0 0.0 0.0 34.56409401068381" Properties=species:S:1:pos:R:3:initial_magmoms:R:1 pbc="T T T"
Si       0.60691394       0.61905258       2.24072234       0.00000000
Si       0.16946487       2.13144876      -1.22180684       0.00000000
Si      -1.76547762      -1.87348846       0.41953921       0.00000000
Si       2.55530546      -0.46768590      -1.05648669       0.00000000
Si      -1.32211269      -1.06894980      -2.70785633       0.00000000
Si       1.85319668       1.18354995      -2.57381670       0.00000000
Si       2.70277883       1.69603335       2.13219102       0.00000000
Si       1.38400722      -1.28893485       3.35932074       0.00000000
Si      -1.30155471       1.61622864       3.32772914       0.00000000
Si      -3.51093483      -0.71377893       1.62472071       0.00000000
