10
Lattice="16.28999089631971 0.0 0.0 0.0 16.28999089631971 0.0 0.0 0.0 34.56409401068381" Properties=species:S:1:pos:R:3:initial_magmoms:R:1 pbc="T T T"
Si      -0.79526151      -2.16281027      -0.30623804       0.00000000
Si       0.19178217       0.82883520      -2.23349844       0.00000000
Si       2.02548231      -0.85670739       1.01901919       0.00000000
Si      -1.64009349       1.45862289       1.03958484       0.00000000
Si      -3.50186130       0.14387328      -0.36720914       0.00000000
Si       1.65649752       2.59631649      -1.78661902       0.00000000
Si       2.87277408      -1.98775793      -0.88062448       0.00000000
Si       0.92686842      -3.14715209      -1.58466090       0.00000000
Si      -2.83296132      -1.92809254      -1.36904996       0.00000000
Si      -0.56428560       1.95227505       3.10406476       0.00000000
