10
Lattice="16.28999089631971 0.0 0.0 0.0 16.28999089631971 0.0 0.0 0.0 34.56409401068381" Properties=species:S:1:pos:R:3:initial_magmoms:R:1 pbc="T T T"
Si      -1.34606046      -1.36220238       1.34513160       0.00000000
Si       1.35925798       1.35223290       1.35570822       0.00000000
Si       1.35676561      -1.35617508      -1.35449847       0.00000000
Si      -1.35622542       1.35790182      -1.35487868       0.00000000
Si      -0.02401293       2.68851789       2.65984678       0.00000000
Si      -2.71378515       0.00105885      -2.71200402       0.00000000
Si       0.00110810      -2.71432125      -2.71186577       0.00000000
Si      -2.71207470      -2.71432125       0.00314533       0.00000000
Si      -2.71119504       2.71560816       0.00190103       0.00000000
Si       0.00126377       2.71555929      -2.71155469       0.00000000
