10
Lattice="16.28999089631971 0.0 0.0 0.0 16.28999089631971 0.0 0.0 0.0 34.56409401068381" Properties=species:S:1:pos:R:3:initial_magmoms:R:1 pbc="T T T"
Si       1.41483537      -1.25960796      -1.34005067       0.00000000
Si       1.46598597       1.24310619       1.34067283       0.00000000
Si      -1.32098868       1.46372166      -1.31409302       0.00000000
Si      -0.66831354      -1.76658534       1.48591123       0.00000000
Si      -0.12854439       2.33709372       2.64567549       0.00000000
Si      -2.61400743      -2.46036015       0.09235531       0.00000000
Si       0.04882113      -2.61172683      -2.68203694       0.00000000
Si       2.50144353      -0.34151985       2.78341348       0.00000000
Si      -2.67154371       0.10474470      -2.68476750       0.00000000
Si       2.75393853      -2.63156805       0.01417129       0.00000000
