10
Lattice="16.28999089631971 0.0 0.0 0.0 16.28999089631971 0.0 0.0 0.0 34.56409401068381" Properties=species:S:1:pos:R:3:initial_magmoms:R:1 pbc="T T T"
Si       1.71232661       1.05780744       1.18897093       0.00000000
Si       1.19817185      -1.03707027      -1.72270997       0.00000000
Si      -1.71428208       1.23378831      -1.07763993       0.00000000
Si      -1.66502112      -1.26324063       1.23297105       0.00000000
Si      -3.20203149       0.35996013       0.54690797       0.00000000
Si       2.29383074      -0.98166798       2.25002009       0.00000000
Si       3.12843260       0.32026140      -1.94381661       0.00000000
Si      -1.45121487       0.82215630      -3.39595870       0.00000000
Si      -1.99008807      -3.22126605      -0.10631921       0.00000000
Si       0.71747350       2.47045995       2.78711184       0.00000000
