10
Lattice="16.28999089631971 0.0 0.0 0.0 16.28999089631971 0.0 0.0 0.0 34.56409401068381" Properties=species:S:1:pos:R:3:initial_magmoms:R:1 pbc="T T T"
Si      -2.07629082       0.76667323       0.87243278       0.00000000
Si       1.56696021       1.71405239      -0.60037865       0.00000000
Si       1.00214844      -1.35247725       1.72561336       0.00000000
Si      -0.70864758      -0.69629976      -2.24566501       0.00000000
Si      -2.51742402      -1.94992929       0.56256551       0.00000000
Si      -0.80084898      -2.83089249       1.90462090       0.00000000
Si      -1.44700812       3.08311775       1.13104148       0.00000000
Si       3.01790888      -2.17038186       0.85898734       0.00000000
Si       3.41973431       0.63239639      -1.62523917       0.00000000
Si      -2.24212302       0.25200795       3.16710970       0.00000000
