10
Lattice="16.28999089631971 0.0 0.0 0.0 16.28999089631971 0.0 0.0 0.0 34.56409401068381" Properties=species:S:1:pos:R:3:initial_magmoms:R:1 pbc="T T T"
Si       0.19759770       1.32067917      -1.90313464       0.00000000
Si      -2.07752886      -1.02179025       0.40529879       0.00000000
Si       0.01497051       1.75923855       1.60038758       0.00000000
Si       2.03517486      -1.23435846      -0.10383060       0.00000000
Si       2.19514266      -1.32396975       2.26311988       0.00000000
Si       1.73154555       0.87827535       2.94244297       0.00000000
Si      -3.51611505       0.86568318       0.57241628       0.00000000
Si       1.82374695       3.01286808      -1.20784294       0.00000000
Si      -1.97926758      -2.08660239       2.54212141       0.00000000
Si      -2.54940129       2.88012087      -0.23154500       0.00000000
