10
Lattice="16.28999089631971 0.0 0.0 0.0 16.28999089631971 0.0 0.0 0.0 34.56409401068381" Properties=species:S:1:pos:R:3:initial_magmoms:R:1 pbc="T T T"
Si       0.94449420       1.20006801      -1.83072283       0.00000000
Si      -1.07274537      -1.93692987      -0.97425866       0.00000000
Si       1.89084546      -0.73985922       1.38024874       0.00000000
Si      -1.45702647       1.80916740       1.13878384       0.00000000
Si      -1.85054400      -0.95682573      -2.94831887       0.00000000
Si      -0.98458389       2.36361777      -2.55096982       0.00000000
Si       3.11191128      -2.07568809      -0.31615794       0.00000000
Si       3.22411680       1.19915577       1.79505266       0.00000000
Si      -2.92807863      -2.62871730       0.32898123       0.00000000
Si      -1.46451987       3.64340578      -0.59882326       0.00000000
