10
Lattice="16.28999089631971 0.0 0.0 0.0 16.28999089631971 0.0 0.0 0.0 34.56409401068381" Properties=species:S:1:pos:R:3:initial_magmoms:R:1 pbc="T T T"
Si      -0.73467900      -0.11236842      -2.26170276       0.00000000
Si      -1.05440283      -1.98607680       0.82352456       0.00000000
Si       2.39542821      -0.26676504      -0.17831626       0.00000000
Si      -0.45509373       2.04742494       1.29017466       0.00000000
Si      -1.55075261       1.99202265      -2.68255540       0.00000000
Si       1.69170021       2.62479141       1.96846082       0.00000000
Si      -2.83054388      -1.18934919      -2.15317144       0.00000000
Si       0.65101356      -3.34047790       1.73249162       0.00000000
Si      -2.05345061      -3.09733662      -1.03457304       0.00000000
Si       3.39933204       1.50236154      -1.36006330       0.00000000
