10
Lattice="16.28999089631971 0.0 0.0 0.0 16.28999089631971 0.0 0.0 0.0 34.56409401068381" Properties=species:S:1:pos:R:3:initial_magmoms:R:1 pbc="T T T"
Si      -1.35428828      -1.34799750       1.38523980       0.00000000
Si       1.36433257       1.36637262       1.38759016       0.00000000
Si       1.26774754      -1.49144724      -1.41310884       0.00000000
Si      -1.43176352       1.31276223      -1.46768212       0.00000000
Si      -2.70982805      -2.70135441       0.00313151       0.00000000
Si      -2.70388220       2.71842633       0.01468284       0.00000000
Si       2.71313643       2.71029762       0.01025517       0.00000000
Si       2.73116946      -2.70746316       0.01330718       0.00000000
Si       2.62013682      -0.19536597      -2.82112435       0.00000000
Si       0.00656214      -2.70966231       2.74426617       0.00000000
