10
Lattice="16.28999089631971 0.0 0.0 0.0 16.28999089631971 0.0 0.0 0.0 34.56409401068381" Properties=species:S:1:pos:R:3:initial_magmoms:R:1 pbc="T T T"
Si       1.35614535      -1.35547265      -1.35740186       0.00000000
Si       1.36322498       1.33338800       1.37385438       0.00000000
Si      -1.36070152       1.35673320      -1.35653776       0.00000000
Si      -1.35149767      -1.36301492       1.37834771       0.00000000
Si      -0.01043971       2.69486385       2.69686494       0.00000000
Si       2.71248985       0.00032537      -2.71456177       0.00000000
Si       2.71426546       2.71351590       0.00404400       0.00000000
Si      -0.00237430       2.71470507      -2.71435438       0.00000000
Si      -0.00209306      -2.71510121      -2.71418156       0.00000000
Si       2.71325548      -2.71692569       0.00145169       0.00000000
