10
Lattice="16.28999089631971 0.0 0.0 0.0 16.28999089631971 0.0 0.0 0.0 34.56409401068381" Properties=species:S:1:pos:R:3:initial_magmoms:R:1 pbc="T T T"
Si       0.99485311      -1.41265251      -1.59814091       0.00000000
Si       1.83921268       0.93165768       1.14123789       0.00000000
Si      -0.86947614      -1.20164814       1.84368437       0.00000000
Si      -1.92621172       0.94591143      -1.03616299       0.00000000
Si       0.26269580      -3.33840744       1.50091206       0.00000000
Si       3.35879275      -0.89278974       1.36790935       0.00000000
Si      -3.23473855      -1.00196532       1.69886073       0.00000000
Si      -0.71747350      -2.47045995      -2.78711184       0.00000000
Si       1.57635724      -3.45212793      -0.53709176       0.00000000
Si      -3.82038034      -0.47327337      -0.52793227       0.00000000
