10
Lattice="16.28999089631971 0.0 0.0 0.0 16.28999089631971 0.0 0.0 0.0 34.56409401068381" Properties=species:S:1:pos:R:3:initial_magmoms:R:1 pbc="T T T"
Si       1.62007308      -1.12708881       1.29283609       0.00000000
Si      -1.89670009      -1.32771645       0.46212220       0.00000000
Si      -0.28398357       2.08088460       1.10366670       0.00000000
Si       0.42647220      -0.32426874      -2.34126934       0.00000000
Si       1.94605227      -2.14871616      -2.11459789       0.00000000
Si       1.95079266      -3.10987503       0.04209909       0.00000000
Si      -3.59804465       0.36062802       0.67234113       0.00000000
Si      -2.28221662      -2.45757456      -1.63882287       0.00000000
Si      -1.19648747       1.65744234       3.23627249       0.00000000
Si       0.83039904      -1.51589853       3.46342785       0.00000000
