10
Lattice="16.28999089631971 0.0 0.0 0.0 16.28999089631971 0.0 0.0 0.0 34.56409401068381" Properties=species:S:1:pos:R:3:initial_magmoms:R:1 pbc="T T T"
Si       0.78967404       0.38880972      -2.17059175       0.00000000
Si       0.02106297       2.30513274       0.59612726       0.00000000
Si      -2.00231304      -1.30450320      -0.04804412       0.00000000
Si       1.88592588      -0.81052524       1.44256783       0.00000000
Si      -1.34271954      -2.89496106       1.59371670       0.00000000
Si       0.50661900       2.23423866       2.84414263       0.00000000
Si       2.73123027       1.69733655      -1.91623444       0.00000000
Si      -2.02688651       3.17334087      -0.22715535       0.00000000
Si       0.99821862      -2.93237919       2.18365699       0.00000000
Si      -0.83039904       1.51589853      -3.46342785       0.00000000
