10
Lattice="16.28999089631971 0.0 0.0 0.0 16.28999089631971 0.0 0.0 0.0 34.56409401068381" Properties=species:S:1:pos:R:3:initial_magmoms:R:1 pbc="T T T"
Si      -0.48555603       0.07089408      -2.24801537       0.00000000
Si      -1.16742285       1.64814075       1.13963796       0.00000000
Si       1.51752753      -1.58744421       0.79338466       0.00000000
Si      -2.41931261       0.07464078       2.32654991       0.00000000
Si       1.37930688      -3.04476390      -1.40157480       0.00000000
Si      -0.50661900      -2.23423866      -2.84414263       0.00000000
Si       0.23337054      -2.79570609       2.33941122       0.00000000
Si       2.89663893      -0.14206509       2.28119488       0.00000000
Si       0.47389239       2.89227321       2.25395490       0.00000000
Si      -1.01872773      -1.28586744       3.70077067       0.00000000
