10
Lattice="16.28999089631971 0.0 0.0 0.0 16.28999089631971 0.0 0.0 0.0 34.56409401068381" Properties=species:S:1:pos:R:3:initial_magmoms:R:1 pbc="T T T"
Si      -1.35735413      -1.35635427       1.35771294       0.00000000
Si       1.35668271      -1.35694071      -1.35785119       0.00000000
Si      -1.35751703       1.35754344      -1.35757468       0.00000000
Si       1.35823841       1.35962856       1.35677970       0.00000000
Si       2.71375211       0.00068418      -2.71466546       0.00000000
Si      -2.71437629       0.00001629      -2.71438895       0.00000000
Si      -0.00178350      -2.71445157      -2.71476915       0.00000000
Si       0.00209306       2.71510121       2.71418156       0.00000000
Si       2.71458290       2.71542658      -0.00038021       0.00000000
Si       2.71515305      -2.71495656       0.00003456       0.00000000
