10
Lattice="16.28999089631971 0.0 0.0 0.0 16.28999089631971 0.0 0.0 0.0 34.56409401068381" Properties=species:S:1:pos:R:3:initial_magmoms:R:1 pbc="T T T"
Si       1.35746199      -1.35449721      -1.35899181       0.00000000
Si      -1.35711013       1.36145304      -1.35885355       0.00000000
Si      -1.35410951      -1.34747622       1.38515684       0.00000000
Si       1.36630746       1.35167904       1.39238074       0.00000000
Si       0.16369821      -2.63775825       2.74190198       0.00000000
Si       2.71096551      -2.71507059       0.00231580       0.00000000
Si      -0.00019548      -2.71313208      -2.71559869       0.00000000
Si      -2.71421633      -2.71463076       0.00214298       0.00000000
Si       2.71420722       0.00203625      -2.71549500       0.00000000
Si      -2.71325548       2.71692569      -0.00145169       0.00000000
