10
Lattice="16.28999089631971 0.0 0.0 0.0 16.28999089631971 0.0 0.0 0.0 34.56409401068381" Properties=species:S:1:pos:R:3:initial_magmoms:R:1 pbc="T T T"
Si      -0.00811242       1.78911441      -1.57501752       0.00000000
Si      -1.98323582      -0.71612469      -1.11175471       0.00000000
Si       1.91392839      -1.47013992       0.10915347       0.00000000
Si      -0.15949539       0.98065800       2.22250705       0.00000000
Si      -0.79359993      -1.58366493      -2.88769341       0.00000000
Si      -2.21093744       1.41615486      -2.18974027       0.00000000
Si       2.89997838      -0.41044284       1.94817168       0.00000000
Si       1.05898032       2.93149953       1.78451061       0.00000000
Si       0.08092872       0.51660477      -3.76282220       0.00000000
Si       0.24233004       3.78343625      -0.26171947       0.00000000
