10
Lattice="10.86 0.0 0.0 0.0 10.86 0.0 0.0 0.0 10.86" Properties=species:S:1:pos:R:3:initial_magmoms:R:1 pbc="T T T"
Si       1.14291726       1.34317566       1.25618706       0.00000000
Si       1.14291726      -1.37182434      -1.45881294       0.00000000
Si      -1.57208274      -1.37182434       1.25618706       0.00000000
Si       2.50041726      -0.01432434       2.61368706       0.00000000
Si       2.50041726       2.70067566      -0.10131294       0.00000000
Si       2.50041726      -2.72932434      -0.10131294       0.00000000
Si       0.10525512       2.44091532       2.84303940       0.00000000
Si       2.50041726      -0.01432434      -2.81631294       0.00000000
Si      -0.21458274      -2.72932434       2.61368706       0.00000000
Si      -0.06670212       2.72100558      -2.81579166       0.00000000
