10
Lattice="10.86 0.0 0.0 0.0 10.86 0.0 0.0 0.0 10.86" Properties=species:S:1:pos:R:3:initial_magmoms:R:1 pbc="T T T"
Si       1.20961938       1.33717008       1.35697872       0.00000000
Si       1.20961938      -1.37782992      -1.35802128       0.00000000
Si      -1.50538062       1.33717008      -1.35802128       0.00000000
Si       2.56711938       2.69467008      -0.00052128       0.00000000
Si       2.56711938      -0.02032992       2.71447872       0.00000000
Si       2.56711938      -0.02032992      -2.71552128       0.00000000
Si       2.56711938      -2.73532992      -0.00052128       0.00000000
Si      -3.01505094       2.31271302       0.11222724       0.00000000
Si      -0.32484432       2.72983476       2.65163190       0.00000000
Si      -0.14788062       2.69467008      -2.71552128       0.00000000
