10
Lattice="10.86 0.0 0.0 0.0 10.86 0.0 0.0 0.0 10.86" Properties=species:S:1:pos:R:3:initial_magmoms:R:1 pbc="T T T"
Si      -1.18053630       1.32233532      -1.29465318       0.00000000
Si       1.53446370      -1.39266468      -1.29465318       0.00000000
Si       1.53446370       1.32233532       1.42034682       0.00000000
Si      -2.53803630       2.67983532       0.06284682       0.00000000
Si      -2.43007704      -0.00974142       2.81426040       0.00000000
Si      -2.69020662      -0.41712174      -2.53940466       0.00000000
Si       0.17696370       2.67983532      -2.65215318       0.00000000
Si       0.32484432      -2.72983476      -2.65163190       0.00000000
Si       0.17696370       2.67983532       2.77784682       0.00000000
Si       2.89196370      -0.03516468      -2.65215318       0.00000000
