10
Lattice="16.28999089631971 0.0 0.0 0.0 16.28999089631971 0.0 0.0 0.0 34.281931910070035" Properties=species:S:1:pos:R:3:initial_magmoms:R:1 pbc="T T T"
Si      -1.35708732       1.36021500       1.36037638       0.00000000
Si       1.36058967      -1.35457866       1.36291325       0.00000000
Si      -1.35034326      -1.34987085      -1.38777109       0.00000000
Si       1.36915821       1.36718712      -1.38696889       0.00000000
Si      -2.56881897       0.19619676      -2.80821973       0.00000000
Si      -2.71358820      -2.71092641      -0.00010285       0.00000000
Si       2.71476108      -2.71212373       0.00973607       0.00000000
Si       0.00086337      -2.71117076       2.71907295       0.00000000
Si       2.71285515       2.71756296      -0.00017141       0.00000000
Si      -2.71347417       0.00325800       2.71862728       0.00000000
