10
Lattice="16.28999089631971 0.0 0.0 0.0 16.28999089631971 0.0 0.0 0.0 34.281931910070035" Properties=species:S:1:pos:R:3:initial_magmoms:R:1 pbc="T T T"
Si      -1.35746199      -1.35541276       1.35753098       0.00000000
Si       1.35741312      -1.35725353      -1.35667393       0.00000000
Si      -1.35767376       1.35805882      -1.35681106       0.00000000
Si       1.35830907       1.35732740       1.35828518       0.00000000
Si      -2.71308321       0.00016748      -2.71441060       0.00000000
Si       0.00205254       2.71465092      -2.71297076       0.00000000
Si       0.00149868      -2.71336345      -2.71509624       0.00000000
Si       2.71523349       0.00164548      -2.71331358       0.00000000
Si      -2.71466334       2.71499301       0.00030854       0.00000000
Si      -2.71463076      -2.71509019       0.00000000       0.00000000
