10
Lattice="16.28999089631971 0.0 0.0 0.0 16.28999089631971 0.0 0.0 0.0 34.281931910070035" Properties=species:S:1:pos:R:3:initial_magmoms:R:1 pbc="T T T"
Si       1.35417141      -1.35754507      -1.35317717       0.00000000
Si       1.35526284       1.35755973       1.35609114       0.00000000
Si      -1.35972630      -1.35659210       1.35615970       0.00000000
Si      -1.36058967       1.35457866      -1.36291325       0.00000000
Si       2.71318095      -2.71300544      -0.00034282       0.00000000
Si       2.71344159       0.00026064       2.71290220       0.00000000
Si      -0.00205254      -2.71465092       2.71297076       0.00000000
Si       2.71350675       2.71461447      -0.00137128       0.00000000
Si      -0.00236205       2.71590138       2.71348499       0.00000000
Si      -2.71513575      -2.71448344      -0.00143984       0.00000000
