10
Lattice="16.28999089631971 0.0 0.0 0.0 16.28999089631971 0.0 0.0 0.0 34.281931910070035" Properties=species:S:1:pos:R:3:initial_magmoms:R:1 pbc="T T T"
Si      -1.34928441      -1.35564763       1.34553230       0.00000000
Si      -1.35474156       1.35643767      -1.35746242       0.00000000
Si       1.35905841      -1.35664132      -1.35807949       0.00000000
Si       1.35847197       1.36436764       1.36791841       0.00000000
Si       0.09871740      -2.40263851       2.82675256       0.00000000
Si      -2.61627174       0.11719221       2.65455432       0.00000000
Si       2.71046052       2.71597989       0.00113130       0.00000000
Si      -2.71285515      -0.00167617      -2.71499340       0.00000000
Si       0.00185706       2.71376445      -2.71530193       0.00000000
Si      -2.71559187       2.71400880       0.00490232       0.00000000
