10
Lattice="16.28999089631971 0.0 0.0 0.0 16.28999089631971 0.0 0.0 0.0 34.281931910070035" Properties=species:S:1:pos:R:3:initial_magmoms:R:1 pbc="T T T"
Si      -1.39900149       0.86183059      -1.62732994       0.00000000
Si      -0.22791339       1.91145231       1.36956395       0.00000000
Si      -1.28181123      -1.63162988       1.15091366       0.00000000
Si       2.16771030      -0.70316504      -0.74974627       0.00000000
Si       1.78821846       1.63093851       2.56922654       0.00000000
Si      -3.04538292      -1.97790641      -0.45848681       0.00000000
Si      -2.41096887      -1.00930301      -2.57693998       0.00000000
Si       3.27771090       1.39556430      -1.09328570       0.00000000
Si       2.97088875      -2.00682116       1.06092354       0.00000000
Si      -3.34114416       1.68207282      -0.39609366       0.00000000
