10
Lattice="16.28999089631971 0.0 0.0 0.0 16.28999089631971 0.0 0.0 0.0 34.281931910070035" Properties=species:S:1:pos:R:3:initial_magmoms:R:1 pbc="T T T"
Si      -1.35544203      -1.35521397       1.35674250       0.00000000
Si       1.35871632       1.35773892       1.35571404       0.00000000
Si      -1.35782037       1.35738054      -1.35794236       0.00000000
Si       1.35760860      -1.35793440      -1.35794236       0.00000000
Si      -2.71471221       2.71464705      -0.00034282       0.00000000
Si       2.71479366      -2.71461447      -0.00006856       0.00000000
Si      -2.71480995      -2.71464705      -0.00030854       0.00000000
Si       2.71508688       2.71467963       0.00071992       0.00000000
Si      -2.71461447       0.00146610      -2.71526765       0.00000000
Si       2.71585251       0.00052128      -2.71413635       0.00000000
