10
Lattice="16.28999089631971 0.0 0.0 0.0 16.28999089631971 0.0 0.0 0.0 34.281931910070035" Properties=species:S:1:pos:R:3:initial_magmoms:R:1 pbc="T T T"
Si       0.87974145      -1.99559016      -0.90178672       0.00000000
Si       0.44199657      -0.24555546       2.34824508       0.00000000
Si       0.95566914       2.17510596      -0.46688589       0.00000000
Si      -2.23593282      -0.28316907      -0.94741600       0.00000000
Si      -0.40091319      -3.39539800       0.54950539       0.00000000
Si      -3.70212893      -1.03571820       0.70826511       0.00000000
Si      -2.34305586      -2.57515578       1.78074167       0.00000000
Si      -1.02532518       1.24955703       3.56367738       0.00000000
Si      -0.08193870       3.19471335      -2.32798445       0.00000000
Si      -2.01704409      -1.80118530      -2.88667741       0.00000000
