10
Lattice="16.28999089631971 0.0 0.0 0.0 16.28999089631971 0.0 0.0 0.0 34.281931910070035" Properties=species:S:1:pos:R:3:initial_magmoms:R:1 pbc="T T T"
Si      -1.16662464      -1.71626553       1.11633757       0.00000000
Si       1.71369171       1.07608482       1.21663970       0.00000000
Si       1.68371811      -0.85688658      -1.52429626       0.00000000
Si      -1.77210765       1.86470001      -0.12807840       0.00000000
Si      -2.01217338      -0.91088793      -2.52039263       0.00000000
Si      -1.76533101       1.47966957      -2.46564435       0.00000000
Si       0.05336604      -1.88439462      -2.88638674       0.00000000
Si      -2.37454443      -0.33086619       2.51977208       0.00000000
Si       0.33835959       2.40383385       2.50332703       0.00000000
Si       2.44882683       1.45494135      -2.11709975       0.00000000
