10
Lattice="16.28999089631971 0.0 0.0 0.0 16.28999089631971 0.0 0.0 0.0 34.281931910070035" Properties=species:S:1:pos:R:3:initial_magmoms:R:1 pbc="T T T"
Si       2.10606894       0.35640891       1.00165005       0.00000000
Si      -2.02595472       1.12125699       0.51100676       0.00000000
Si       0.68357727       0.66285639      -2.17196729       0.00000000
Si      -0.26099838      -2.33186463       0.54110632       0.00000000
Si      -3.40550595       0.10218717      -1.14823967       0.00000000
Si      -2.44607382       0.35036532       2.70141774       0.00000000
Si       3.53328471      -0.78592734      -0.65677362       0.00000000
Si       0.53468667      -3.36740364      -1.39277283       0.00000000
Si       1.85100012      -1.02762207       3.11900619       0.00000000
Si      -0.64176084      -0.36984816      -3.71993451       0.00000000
