10
Lattice="16.28999089631971 0.0 0.0 0.0 16.28999089631971 0.0 0.0 0.0 34.281931910070035" Properties=species:S:1:pos:R:3:initial_magmoms:R:1 pbc="T T T"
Si      -0.83847888      -1.68397875       1.36538498       0.00000000
Si      -0.10334376      -1.30512222      -1.96835448       0.00000000
Si       1.82099394       0.95301387       1.24220307       0.00000000
Si      -1.65527577       1.83260871      -0.11287816       0.00000000
Si      -2.21381100      -0.35622972       2.65207230       0.00000000
Si       0.51407982       2.35410048       2.63435539       0.00000000
Si      -2.07565551      -0.20313630      -2.91985003       0.00000000
Si      -2.55217059      -2.76006357       0.14874527       0.00000000
Si       1.94082318      -0.55882845      -3.20188765       0.00000000
Si      -3.50909406       1.01387331       1.17361860       0.00000000
