10
Lattice="16.28999089631971 0.0 0.0 0.0 16.28999089631971 0.0 0.0 0.0 34.281931910070035" Properties=species:S:1:pos:R:3:initial_magmoms:R:1 pbc="T T T"
Si       1.30176648      -1.50798159       1.20233659       0.00000000
Si       1.64918331       0.95536193      -1.35293720       0.00000000
Si      -1.16866089      -1.66205241      -1.21745493       0.00000000
Si      -1.66514751       0.93176749       1.65458409       0.00000000
Si      -0.71529390      -0.88884756       2.98174126       0.00000000
Si      -0.80280378      -2.90686905       1.52870076       0.00000000
Si       0.09109368       2.10495375      -2.67628907       0.00000000
Si       2.49693120       2.54945735       0.31721089       0.00000000
Si       1.62541620      -0.42085215       3.26847550       0.00000000
Si      -2.88122859       2.43974420       0.06547853       0.00000000
