10
Lattice="16.28999089631971 0.0 0.0 0.0 16.28999089631971 0.0 0.0 0.0 34.281931910070035" Properties=species:S:1:pos:R:3:initial_magmoms:R:1 pbc="T T T"
Si      -1.23582456      -0.67650741       1.92246325       0.00000000
Si       2.34071010       0.46799541       0.28673424       0.00000000
Si      -0.94985361       1.82061505      -1.32715717       0.00000000
Si      -0.08750988      -2.01802149      -1.45304050       0.00000000
Si       2.01706038      -0.61913403      -1.77940467       0.00000000
Si       0.71529390       0.88884756      -2.98174126       0.00000000
Si      -2.57821830      -2.19467025       0.71731554       0.00000000
Si      -3.20583942       1.07440695      -1.16407793       0.00000000
Si       2.45873115       2.81183875      -0.10126888       0.00000000
Si       2.68542279      -0.10945251       2.59922325       0.00000000
