10
Lattice="16.28999089631971 0.0 0.0 0.0 16.28999089631971 0.0 0.0 0.0 34.281931910070035" Properties=species:S:1:pos:R:3:initial_magmoms:R:1 pbc="T T T"
Si      -0.70198497      -0.59600223       2.10028373       0.00000000
Si       1.87802523      -1.09617039      -0.73644487       0.00000000
Si       0.97948512       2.18240388       0.48296413       0.00000000
Si      -1.64377503      -1.11267216      -1.51001710       0.00000000
Si       1.53832986      -0.43774488      -2.96261193       0.00000000
Si      -0.76313763       0.00407250      -3.39127345       0.00000000
Si      -0.97881723       3.45115120       0.78183418       0.00000000
Si      -0.72845622      -2.97639477       2.12644086       0.00000000
Si      -2.76270255       0.54159363       2.49932564       0.00000000
Si       3.91925997      -0.48726648       0.22084433       0.00000000
