10
Lattice="16.28999089631971 0.0 0.0 0.0 16.28999089631971 0.0 0.0 0.0 34.281931910070035" Properties=species:S:1:pos:R:3:initial_magmoms:R:1 pbc="T T T"
Si      -1.34918667       1.35614250      -1.35910795       0.00000000
Si      -1.35198855      -1.35161225       1.36678711       0.00000000
Si       1.36436895      -1.35988106      -1.35845659       0.00000000
Si       1.36332639       1.37686338       1.38259109       0.00000000
Si       0.20610108      -2.50120407       2.69013898       0.00000000
Si      -2.70894555       2.71134018       0.00034282       0.00000000
Si      -2.70860346      -0.00221544      -2.71643324       0.00000000
Si      -2.71046052      -2.71597989      -0.00113130       0.00000000
Si       0.00575037       2.71334385      -2.71622755       0.00000000
Si       2.71951776       2.71208952      -0.00030854       0.00000000
