10
Lattice="16.28999089631971 0.0 0.0 0.0 16.28999089631971 0.0 0.0 0.0 34.281931910070035" Properties=species:S:1:pos:R:3:initial_magmoms:R:1 pbc="T T T"
Si       1.63404990       0.94552047      -1.52657528       0.00000000
Si      -0.84774789      -1.59409542      -1.67014809       0.00000000
Si      -1.68687837       1.81121994      -0.13105990       0.00000000
Si      -0.75349395      -0.62646616       2.56326148       0.00000000
Si       1.48126599      -0.16088004       2.53480746       0.00000000
Si      -2.49693120      -2.54945735      -0.31721089       0.00000000
Si       0.30947742       2.28397203      -2.97769599       0.00000000
Si      -2.40583752      -0.44450360      -2.99349997       0.00000000
Si       3.41368353       1.86769737      -0.31124583       0.00000000
Si      -3.66386535       0.96806583      -1.50100095       0.00000000
