10
Lattice="16.28999089631971 0.0 0.0 0.0 16.28999089631971 0.0 0.0 0.0 34.281931910070035" Properties=species:S:1:pos:R:3:initial_magmoms:R:1 pbc="T T T"
Si       0.35349300       2.27800989       0.26160557       0.00000000
Si       1.44779004      -1.30419369      -1.33387643       0.00000000
Si       0.15892524      -1.06966656       2.15897443       0.00000000
Si      -2.07262557      -0.00112401      -1.30981050       0.00000000
Si      -0.26699310      -3.13612360       1.17566523       0.00000000
Si      -3.37761747      -1.07790930       0.28954536       0.00000000
Si      -0.18582003       3.25420443      -1.88039930       0.00000000
Si       0.48749454      -1.39101939      -3.46415687       0.00000000
Si      -0.50130846       2.79660204       2.49840003       0.00000000
Si       1.35024552      -3.53982419      -0.55807588       0.00000000
