10
Lattice="16.28999089631971 0.0 0.0 0.0 16.28999089631971 0.0 0.0 0.0 34.281931910070035" Properties=species:S:1:pos:R:3:initial_magmoms:R:1 pbc="T T T"
Si       0.13592376       1.65163658      -1.62955826       0.00000000
Si       0.40246074       0.29627275       2.28060679       0.00000000
Si      -0.33829443      -2.13670784      -1.06935690       0.00000000
Si       2.52980442       1.28996600       1.67333631       0.00000000
Si       1.67417217       0.96651176      -3.26271613       0.00000000
Si       3.84830073       0.09663880       0.20802288       0.00000000
Si       0.96106113       3.69933845      -0.76541312       0.00000000
Si      -1.22230386       1.66991396       3.36127674       0.00000000
Si       1.35878148      -2.68506182      -2.59960035       0.00000000
Si      -1.69222149       2.09374718      -3.03563249       0.00000000
