10
Lattice="16.28999089631971 0.0 0.0 0.0 16.28999089631971 0.0 0.0 0.0 34.281931910070035" Properties=species:S:1:pos:R:3:initial_magmoms:R:1 pbc="T T T"
Si      -1.15023690      -1.62096903       1.28941274       0.00000000
Si       2.14664733      -0.33067071       0.98114944       0.00000000
Si      -0.47029230      -0.05657517      -2.34049736       0.00000000
Si      -1.01999835       2.07814788       0.60349947       0.00000000
Si      -2.87578773       0.13861161      -2.06185367       0.00000000
Si      -3.13553178       1.79779698      -0.36098894       0.00000000
Si       2.60776836       1.81151316       1.82355982       0.00000000
Si      -1.64784753       1.79857890       2.83498023       0.00000000
Si      -1.69837911      -0.52988112       3.33148572       0.00000000
Si       0.25984179      -3.58599915       1.55173823       0.00000000
