10
Lattice="16.28999089631971 0.0 0.0 0.0 16.28999089631971 0.0 0.0 0.0 34.281931910070035" Properties=species:S:1:pos:R:3:initial_magmoms:R:1 pbc="T T T"
Si      -1.32976899       0.77981859      -1.76936006       0.00000000
Si       0.78222951       2.08406115       0.80853982       0.00000000
Si       1.71559764      -0.97845885      -1.34755493       0.00000000
Si      -1.67340654      -1.55644434       1.14035482       0.00000000
Si       3.41238033      -1.23940836       0.23010046       0.00000000
Si      -3.45763395      -0.01914075      -1.32630012       0.00000000
Si      -0.53408394      -0.25572042      -3.70323920       0.00000000
Si       1.03729833       3.46809213      -1.30881633       0.00000000
Si       0.89046027      -3.02616072      -2.21170007       0.00000000
Si       1.76847498       0.15498306      -3.50543234       0.00000000
