10
Lattice="16.28999089631971 0.0 0.0 0.0 16.28999089631971 0.0 0.0 0.0 34.281931910070035" Properties=species:S:1:pos:R:3:initial_magmoms:R:1 pbc="T T T"
Si       1.35571896      -1.35527913       1.35605686       0.00000000
Si      -1.33473744      -1.36109466      -1.37554615       0.00000000
Si      -1.35744570       1.36054080       1.35705103       0.00000000
Si       1.35540945       1.35378045      -1.37093522       0.00000000
Si      -2.70754461       0.04696407      -2.63630603       0.00000000
Si      -0.00112401      -2.71331127       2.71485627       0.00000000
Si       2.71378368       0.00102627       2.71492483       0.00000000
Si       2.71432125      -2.71534752      -0.00569080       0.00000000
Si       2.71254564       2.71766070      -0.00263971       0.00000000
Si      -2.71811682      -2.71272483      -0.00606791       0.00000000
