10
Lattice="16.28999089631971 0.0 0.0 0.0 16.28999089631971 0.0 0.0 0.0 34.281931910070035" Properties=species:S:1:pos:R:3:initial_magmoms:R:1 pbc="T T T"
Si      -1.35604476      -1.35845568       1.35739385       0.00000000
Si       1.35834165      -1.35705474      -1.35749670       0.00000000
Si      -1.35692442       1.35834165      -1.35763383       0.00000000
Si       1.35876519       1.35755973       1.35742813       0.00000000
Si      -2.71399545       0.00125433      -2.71389637       0.00000000
Si      -2.71505430      -2.71388142       0.00017141       0.00000000
Si       0.00081450      -2.71516833      -2.71468486       0.00000000
Si       2.71546155      -2.71467963      -0.00051423       0.00000000
Si      -2.71476108       2.71541268       0.00095989       0.00000000
Si       0.00099369       2.71425609       2.71615898       0.00000000
