10
Lattice="16.28999089631971 0.0 0.0 0.0 16.28999089631971 0.0 0.0 0.0 34.281931910070035" Properties=species:S:1:pos:R:3:initial_magmoms:R:1 pbc="T T T"
Si      -1.35637056      -1.35694071       1.35499412       0.00000000
Si       1.35783666      -1.35707103      -1.35859372       0.00000000
Si      -1.35757602       1.35824391      -1.35849087       0.00000000
Si       1.35992178       1.35985662       1.35869657       0.00000000
Si       0.00076563      -2.71415835      -2.71485627       0.00000000
Si      -0.00192222       2.71269225       2.71677606       0.00000000
Si      -2.71461447       2.71505430      -0.00130271       0.00000000
Si      -2.71508688      -2.71467963      -0.00071992       0.00000000
Si       2.71476108      -2.71541268      -0.00095989       0.00000000
Si       2.71547784       2.71502172      -0.00061708       0.00000000
