10
Lattice="16.28999089631971 0.0 0.0 0.0 16.28999089631971 0.0 0.0 0.0 34.281931910070035" Properties=species:S:1:pos:R:3:initial_magmoms:R:1 pbc="T T T"
Si       1.35539316       1.35627282      -1.35763383       0.00000000
Si       1.35770634      -1.35690813       1.35777095       0.00000000
Si      -1.35726651       1.35775521       1.35790808       0.00000000
Si      -1.35806472      -1.35630540      -1.35886798       0.00000000
Si      -2.71378368      -0.00102627      -2.71492483       0.00000000
Si      -2.71490769      -2.71433754      -0.00006856       0.00000000
Si      -2.71282257       0.00259011       2.71722172       0.00000000
Si       0.00078192      -2.71511946       2.71499340       0.00000000
Si       2.71503801       2.71528236      -0.00003428       0.00000000
Si       2.71555929      -2.71495656       0.00027426       0.00000000
