10
Lattice="16.28999089631971 0.0 0.0 0.0 16.28999089631971 0.0 0.0 0.0 34.281931910070035" Properties=species:S:1:pos:R:3:initial_magmoms:R:1 pbc="T T T"
Si       1.35777150      -1.35669636      -1.35873085       0.00000000
Si      -1.35583299       1.36101321      -1.35650252       0.00000000
Si      -1.37244879      -1.33364601       1.37724310       0.00000000
Si       1.36329381       1.37210670       1.38262537       0.00000000
Si       0.01384650      -2.59248834       2.78266597       0.00000000
Si       2.71588509      -2.71352304       0.00143984       0.00000000
Si       2.71106325       2.71847520       0.00250258       0.00000000
Si      -0.00099369      -2.71425609      -2.71615898       0.00000000
Si       2.71469592       0.00151497      -2.71595329       0.00000000
Si      -2.71575477       0.00115659      -2.71519909       0.00000000
