10
Lattice="16.28999089631971 0.0 0.0 0.0 16.28999089631971 0.0 0.0 0.0 34.281931910070035" Properties=species:S:1:pos:R:3:initial_magmoms:R:1 pbc="T T T"
Si      -2.22120666       0.67596984       0.01021602       0.00000000
Si       0.44209431      -1.75655070       1.47906050       0.00000000
Si       1.06548003       1.78961940       1.08070423       0.00000000
Si       0.44198028      -1.11697272      -2.06250502       0.00000000
Si      -3.18567240      -1.48991598       0.25900014       0.00000000
Si       0.85027284       1.08025506       3.34896952       0.00000000
Si       1.72524132       0.39767148      -3.26563009       0.00000000
Si       3.34117674       1.52555850       0.60079119       0.00000000
Si      -0.20157246      -1.03083120       3.59566244       0.00000000
Si       2.70570384      -1.92116115       2.04495266       0.00000000
