10
Lattice="16.28999089631971 0.0 0.0 0.0 16.28999089631971 0.0 0.0 0.0 34.281931910070035" Properties=species:S:1:pos:R:3:initial_magmoms:R:1 pbc="T T T"
Si      -0.64366677       0.72571950       2.11660194       0.00000000
Si      -0.44209431       1.75655070      -1.47906050       0.00000000
Si       2.26360953      -0.16461045       0.56589217       0.00000000
Si      -0.46112103      -2.14218387      -0.84241038       0.00000000
Si       0.07819200      -3.11837841       1.29959448       0.00000000
Si       0.40817853       2.83680576       1.86990902       0.00000000
Si       2.32298658      -2.46793500       1.06075213       0.00000000
Si      -0.00011403       0.63957798      -3.54156552       0.00000000
Si       0.62338572       3.54617010      -0.39835627       0.00000000
Si      -2.60776836      -1.81151316      -1.82355982       0.00000000
