10
Lattice="16.28999089631971 0.0 0.0 0.0 16.28999089631971 0.0 0.0 0.0 34.281931910070035" Properties=species:S:1:pos:R:3:initial_magmoms:R:1 pbc="T T T"
Si      -1.28573712      -1.36868580       1.46236317       0.00000000
Si       1.28578599       1.29995829       1.54999812       0.00000000
Si       1.83109374      -0.68755203      -1.43439111       0.00000000
Si       2.66119956       2.38441617      -0.05629096       0.00000000
Si       0.76225797       3.20766390      -1.49517301       0.00000000
Si      -2.78819640      -2.33593713      -0.05070301       0.00000000
Si       2.55135609      -0.12176775       2.95317895       0.00000000
Si      -0.15809445       2.59240689       2.94843433       0.00000000
Si      -1.58430024      -3.05287632      -2.00237448       0.00000000
Si      -1.44174645       2.41074081      -2.88420911       0.00000000
