10
Lattice="16.28999089631971 0.0 0.0 0.0 16.28999089631971 0.0 0.0 0.0 34.281931910070035" Properties=species:S:1:pos:R:3:initial_magmoms:R:1 pbc="T T T"
Si       1.49231061       1.03783590      -1.50773876       0.00000000
Si      -1.30691412       1.40108661       1.39215232       0.00000000
Si       1.40348124      -1.33017624       1.38855272       0.00000000
Si      -1.82099394      -0.95301387      -1.24220307       0.00000000
Si       2.64435570       2.58590948       0.00699009       0.00000000
Si      -2.65947282      -2.63699262       0.12318191       0.00000000
Si      -2.57983101       2.76665029      -0.11923263       0.00000000
Si      -3.47626971       0.87959484      -1.35508123       0.00000000
Si      -2.67186951       0.03236823       2.75893943       0.00000000
Si       0.04807179      -2.68395669       2.75948794       0.00000000
