10
Lattice="16.28999089631971 0.0 0.0 0.0 16.28999089631971 0.0 0.0 0.0 34.281931910070035" Properties=species:S:1:pos:R:3:initial_magmoms:R:1 pbc="T T T"
Si       1.35591444       1.35610992       1.35842231       0.00000000
Si       1.35744570      -1.36054080      -1.35705103       0.00000000
Si      -1.35909099      -1.35853713       1.35790808       0.00000000
Si      -1.36249560       1.35578412      -1.35759954       0.00000000
Si      -2.71458189       2.71353094       0.00068564       0.00000000
Si      -0.00149868       2.71336345       2.71509624       0.00000000
Si       2.71373481       2.71500893       0.00178266       0.00000000
Si       2.71316466      -2.71581993      -0.00099418       0.00000000
Si       2.71396287      -0.00175932       2.71578188       0.00000000
Si      -2.71634121      -2.71414206       0.00044567       0.00000000
