10
Lattice="16.28999089631971 0.0 0.0 0.0 16.28999089631971 0.0 0.0 0.0 34.281931910070035" Properties=species:S:1:pos:R:3:initial_magmoms:R:1 pbc="T T T"
Si      -1.35591444      -1.35610992      -1.35842231       0.00000000
Si      -1.35741312       1.35725353       1.35667393       0.00000000
Si       1.35804843      -1.35786924       1.35735957       0.00000000
Si       1.35782037       1.35889901      -1.35663965       0.00000000
Si      -0.00118917       2.71435939      -2.70947400       0.00000000
Si      -2.71487511       0.00184077       2.71420491       0.00000000
Si       0.00089595       2.71458093       2.71495911       0.00000000
Si      -2.71500543      -2.71464705      -0.00051423       0.00000000
Si       0.00249237      -2.71303434       2.71667321       0.00000000
Si       2.71542897       0.00052128       2.71475342       0.00000000
