10
Lattice="16.28999089631971 0.0 0.0 0.0 16.28999089631971 0.0 0.0 0.0 34.281931910070035" Properties=species:S:1:pos:R:3:initial_magmoms:R:1 pbc="T T T"
Si      -1.35555606      -1.35516510       1.35931364       0.00000000
Si       1.35726651      -1.35775521      -1.35790808       0.00000000
Si       1.35738054       1.35839052       1.35739385       0.00000000
Si      -1.35804843       1.35786924      -1.35735957       0.00000000
Si       2.71265967      -0.00148239      -2.71554191       0.00000000
Si       2.71456560       2.71475056      -0.00020569       0.00000000
Si       2.71497285      -2.71466334      -0.00013713       0.00000000
Si       2.71134018       0.00229689       2.71831875       0.00000000
Si       0.00410508       2.71338601       2.71629611       0.00000000
Si      -2.71396287       0.00175932      -2.71578188       0.00000000
