10
Lattice="16.28999089631971 0.0 0.0 0.0 16.28999089631971 0.0 0.0 0.0 34.281931910070035" Properties=species:S:1:pos:R:3:initial_magmoms:R:1 pbc="T T T"
Si      -1.35327546       1.35499549       1.35890226       0.00000000
Si       1.35395964      -1.35609363       1.36092489       0.00000000
Si       1.35718506       1.35636004      -1.35759954       0.00000000
Si      -1.35738054      -1.35839052      -1.35739385       0.00000000
Si      -2.71293660      -2.71355562       0.00191979       0.00000000
Si       2.71430496       2.71406617      -0.00058279       0.00000000
Si      -2.71453302       2.71405965       0.00020569       0.00000000
Si      -0.00016290       2.71476012      -2.71516481       0.00000000
Si      -2.71542897      -0.00052128      -2.71475342       0.00000000
Si       2.71492398      -0.00086337      -2.71533622       0.00000000
