10
Lattice="16.28999089631971 0.0 0.0 0.0 16.28999089631971 0.0 0.0 0.0 34.281931910070035" Properties=species:S:1:pos:R:3:initial_magmoms:R:1 pbc="T T T"
Si       1.51594740       1.72151091      -0.31868502       0.00000000
Si      -2.24336106       0.08076582      -0.66174450       0.00000000
Si       0.08527815      -0.14732676       2.33998313       0.00000000
Si       0.77950908      -1.53674973      -1.60340113       0.00000000
Si       3.21701436       0.76901832       1.14258315       0.00000000
Si      -2.98677150       1.60531434       1.04371400       0.00000000
Si      -2.18359305       0.30165822       2.85438381       0.00000000
Si       0.91004085      -2.33010531       2.63679627       0.00000000
Si       1.55119896       2.05273941      -2.64639521       0.00000000
Si       0.49884867       3.62630780       0.60898458       0.00000000
