10
Lattice="16.28999089631971 0.0 0.0 0.0 16.28999089631971 0.0 0.0 0.0 34.281931910070035" Properties=species:S:1:pos:R:3:initial_magmoms:R:1 pbc="T T T"
Si      -0.90277551      -2.16111285       0.33407761       0.00000000
Si      -0.37374147       1.40670666       1.86912054       0.00000000
Si       2.26887120      -0.44898498      -0.51440068       0.00000000
Si      -0.80317845       1.30365612      -1.81066981       0.00000000
Si       1.92795408       1.57954537       2.39442287       0.00000000
Si      -0.05976801      -0.22089240      -3.51612831       0.00000000
Si       2.18359305      -0.30165822      -2.85438381       0.00000000
Si      -3.20424300      -1.71929547      -0.09458390       0.00000000
Si      -2.97088875       2.00682116      -1.06092354       0.00000000
Si       3.54519270       1.17584478       0.66068176       0.00000000
