10
Lattice="16.28999089631971 0.0 0.0 0.0 16.28999089631971 0.0 0.0 0.0 34.281931910070035" Properties=species:S:1:pos:R:3:initial_magmoms:R:1 pbc="T T T"
Si       0.71392554      -1.78199568      -1.44285876       0.00000000
Si      -2.04416694      -0.74629377       1.23353316       0.00000000
Si      -0.50854122       1.92780747      -1.57820390       0.00000000
Si       2.20400442       0.79692309       1.38903609       0.00000000
Si       1.18853469       1.37945349      -3.10844735       0.00000000
Si       0.62820756      -0.82560978      -3.63176133       0.00000000
Si      -1.94082318       0.55882845       3.20188765       0.00000000
Si       3.00856752      -2.28248964      -0.96877366       0.00000000
Si       1.44174645      -2.41074081       2.88420911       0.00000000
Si      -4.01647869       0.35569215       0.28203761       0.00000000
