10
Lattice="16.28999089631971 0.0 0.0 0.0 16.28999089631971 0.0 0.0 0.0 34.281931910070035" Properties=species:S:1:pos:R:3:initial_magmoms:R:1 pbc="T T T"
Si      -1.47312099       1.19903115      -1.37772648       0.00000000
Si      -1.35685926      -1.35317432       1.37213166       0.00000000
Si       1.36254447       1.36056605       1.37038328       0.00000000
Si       1.28344023      -1.31472992      -1.57350384       0.00000000
Si       2.71539639      -2.70434837      -0.02718216       0.00000000
Si      -2.71950147       2.70169080       0.00574565       0.00000000
Si       2.71269225       2.71446216      -0.01514234       0.00000000
Si      -2.71399545      -2.71705457       0.00383615       0.00000000
Si      -0.00022806      -2.71353593       2.73206238       0.00000000
Si      -2.71311579       0.00471472       2.73360507       0.00000000
