10
Lattice="16.28999089631971 0.0 0.0 0.0 16.28999089631971 0.0 0.0 0.0 34.281931910070035" Properties=species:S:1:pos:R:3:initial_magmoms:R:1 pbc="T T T"
Si      -2.01233628      -1.04764411       0.60819609       0.00000000
Si      -0.36202896       1.71489880       1.60566374       0.00000000
Si       1.62429219      -1.36136086       1.18838383       0.00000000
Si      -0.15301197       0.61459075      -2.55493097       0.00000000
Si       0.10780722       3.24210259      -0.13061423       0.00000000
Si       0.77151069      -3.44556862       0.44628244       0.00000000
Si      -1.72281411      -3.28042060      -0.12934580       0.00000000
Si       0.90104877       1.19102869       3.51386570       0.00000000
Si      -3.79882800       0.36725968      -0.13609935       0.00000000
Si      -2.04758784      -1.37887261       2.93590629       0.00000000
