10
Lattice="16.28999089631971 0.0 0.0 0.0 16.28999089631971 0.0 0.0 0.0 34.281931910070035" Properties=species:S:1:pos:R:3:initial_magmoms:R:1 pbc="T T T"
Si       1.26307773      -0.52387011       1.90820196       0.00000000
Si       0.46983618       1.52720379      -1.73627798       0.00000000
Si      -2.05213275       0.66557682       0.98012098       0.00000000
Si       0.36202896      -1.71489880      -1.60566374       0.00000000
Si      -1.65030732      -2.76254291      -0.99746765       0.00000000
Si      -3.24531009       0.89248023      -1.02307627       0.00000000
Si      -1.73452662       1.84619457      -2.54046398       0.00000000
Si       1.98632115      -3.07625966      -0.41727991       0.00000000
Si      -2.70265761      -1.18897452       2.25791214       0.00000000
Si      -1.68555888      -3.09377141       1.33024255       0.00000000
