10
Lattice="16.28999089631971 0.0 0.0 0.0 16.28999089631971 0.0 0.0 0.0 34.281931910070035" Properties=species:S:1:pos:R:3:initial_magmoms:R:1 pbc="T T T"
Si      -1.35811359       1.35682668      -1.36017069       0.00000000
Si       1.35711990      -1.35725022      -1.36140484       0.00000000
Si       1.35586557       1.35609363       1.36651285       0.00000000
Si      -1.36941885      -1.34833959       1.37614608       0.00000000
Si       2.71291870       2.71192662       0.00041138       0.00000000
Si       2.71197549      -2.71397916      -0.00099418       0.00000000
Si      -2.71588509       2.71352304      -0.00143984       0.00000000
Si       2.71393778      -0.00013032      -2.71766739       0.00000000
Si      -0.00118917       2.71503801      -2.71739313       0.00000000
Si      -0.00141723      -2.71541268      -2.71811305       0.00000000
