10
Lattice="16.28999089631971 0.0 0.0 0.0 16.28999089631971 0.0 0.0 0.0 34.281931910070035" Properties=species:S:1:pos:R:3:initial_magmoms:R:1 pbc="T T T"
Si      -1.51078347      -0.95371434       1.51738772       0.00000000
Si       0.23014512      -1.16525628      -2.04735240       0.00000000
Si       2.20436280      -0.31899078       0.80418601       0.00000000
Si      -0.05033610       2.27755377       0.75341444       0.00000000
Si      -3.25977561       1.20601386      -0.78488527       0.00000000
Si       1.73452662      -1.84619457       2.54046398       0.00000000
Si       1.60194231       3.11482719      -0.84148477       0.00000000
Si       1.18283319       0.50046138      -3.40519192       0.00000000
Si      -1.70227242      -3.19383369       0.79870090       0.00000000
Si      -0.31760613      -1.18061775       3.52058496       0.00000000
