10
Lattice="16.28999089631971 0.0 0.0 0.0 16.28999089631971 0.0 0.0 0.0 34.281931910070035" Properties=species:S:1:pos:R:3:initial_magmoms:R:1 pbc="T T T"
Si       1.35703845       1.35769005       1.35759954       0.00000000
Si      -1.35816246      -1.35708732       1.35739385       0.00000000
Si       1.35876519      -1.35689184      -1.35842231       0.00000000
Si      -1.35798327       1.35627282      -1.36329035       0.00000000
Si       2.71291303      -2.71207323      -0.00047995       0.00000000
Si       2.71393029       2.71490769       0.00130271       0.00000000
Si      -0.00104256      -2.71471221       2.71437632       0.00000000
Si       2.71431245       0.00057015       2.71482199       0.00000000
Si      -0.00081450       2.71573848       2.71509624       0.00000000
Si      -2.71568961      -2.71520091       0.00020569       0.00000000
