10
Lattice="16.28999089631971 0.0 0.0 0.0 16.28999089631971 0.0 0.0 0.0 34.281931910070035" Properties=species:S:1:pos:R:3:initial_magmoms:R:1 pbc="T T T"
Si       1.82317680       0.79555473       1.32434605       0.00000000
Si       1.14438879      -1.52889795      -1.45602303       0.00000000
Si      -1.35850455      -1.47259971       1.35177161       0.00000000
Si      -1.56406806       1.20063816      -1.44135035       0.00000000
Si      -1.50247557       1.54101771       2.11334516       0.00000000
Si       2.64519726       2.59685406      -0.08933876       0.00000000
Si      -1.22624604      -0.61261803       3.48853134       0.00000000
Si       2.50144192      -0.17306496      -2.82212449       0.00000000
Si      -0.21629862       2.54700666      -2.82147314       0.00000000
Si       2.53765687      -2.85182514      -0.06129613       0.00000000
