10
Lattice="16.28999089631971 0.0 0.0 0.0 16.28999089631971 0.0 0.0 0.0 34.281931910070035" Properties=species:S:1:pos:R:3:initial_magmoms:R:1 pbc="T T T"
Si       2.17685455       0.78379335      -0.40658394       0.00000000
Si      -1.50809562      -0.81427194      -1.64419666       0.00000000
Si      -0.73383192       1.53207450       1.67799866       0.00000000
Si       0.06983523      -2.28446073       0.75619128       0.00000000
Si      -0.59227182      -0.19886832       3.26155054       0.00000000
Si      -2.92451112       1.64538774      -0.58683844       0.00000000
Si       1.74641573       1.18711746      -2.74595000       0.00000000
Si      -3.16037403      -1.65154536      -0.04929745       0.00000000
Si       3.33720917      -1.28813175      -0.28251756       0.00000000
Si       2.20353268      -2.28222900       1.68084406       0.00000000
