10
Lattice="16.28999089631971 0.0 0.0 0.0 16.28999089631971 0.0 0.0 0.0 34.281931910070035" Properties=species:S:1:pos:R:3:initial_magmoms:R:1 pbc="T T T"
Si       0.08270433      -0.33197391      -2.26398005       0.00000000
Si       2.27338353      -0.44528715       0.00085705       0.00000000
Si      -1.28326104      -1.51464420       1.20312507       0.00000000
Si      -0.79029306       2.18530350       0.10613692       0.00000000
Si      -2.65712706      -0.90015282      -0.76332192       0.00000000
Si      -2.45742795       1.38709350      -1.68094691       0.00000000
Si       0.34845939      -3.27427371       0.89750148       0.00000000
Si       2.41494363      -2.17622997       1.58440893       0.00000000
Si       3.31731189       1.61218872       0.30617210       0.00000000
Si      -1.72524132      -0.39767148       3.26563009       0.00000000
