10
Lattice="16.28999089631971 0.0 0.0 0.0 16.28999089631971 0.0 0.0 0.0 34.281931910070035" Properties=species:S:1:pos:R:3:initial_magmoms:R:1 pbc="T T T"
Si      -1.25543772      -1.16939394       1.56946200       0.00000000
Si      -0.61996482       2.27732571       0.12530053       0.00000000
Si       2.04709329       0.18088416       1.18848668       0.00000000
Si       0.17904339      -1.02679128      -2.15671182       0.00000000
Si       2.21800635      -2.13952860      -1.70443004       0.00000000
Si      -0.27565938      -0.29724363       3.51465419       0.00000000
Si       3.48741926      -0.62696952      -0.41436594       0.00000000
Si      -3.51904725      -1.00478349       1.00356984       0.00000000
Si       0.03748329       0.70415154      -3.74026371       0.00000000
Si       2.46386317       2.46547521       1.68434082       0.00000000
