10
Lattice="16.28999089631971 0.0 0.0 0.0 16.28999089631971 0.0 0.0 0.0 34.281931910070035" Properties=species:S:1:pos:R:3:initial_magmoms:R:1 pbc="T T T"
Si      -0.61414929       2.22169536       0.07387760       0.00000000
Si      -0.95425191      -1.39035150       1.58375758       0.00000000
Si      -0.97977834      -0.87215031      -1.94519219       0.00000000
Si       2.29066300      -0.51940665      -0.19043624       0.00000000
Si       2.32275267       0.47812779      -2.32616751       0.00000000
Si      -0.33493869      -0.08553879       3.40142090       0.00000000
Si       0.08244369      -3.38271624       0.63150782       0.00000000
Si       0.27565938       0.29724363      -3.51465419       0.00000000
Si      -2.83520934       2.12926590      -0.64117533       0.00000000
Si      -0.92040129      -3.17547486      -1.45033222       0.00000000
