10
Lattice="16.28999089631971 0.0 0.0 0.0 16.28999089631971 0.0 0.0 0.0 34.281931910070035" Properties=species:S:1:pos:R:3:initial_magmoms:R:1 pbc="T T T"
Si      -0.61931322      -1.30481271      -1.81766333       0.00000000
Si       0.59453613      -1.90666305       1.25629638       0.00000000
Si       1.81107333       1.54220688       0.37281622       0.00000000
Si      -1.52018280       1.88841825       0.08724757       0.00000000
Si      -1.25591013       1.07261505       2.50583921       0.00000000
Si       0.33493869       0.08553879      -3.40142090       0.00000000
Si       0.93144591       2.06900919       2.61588428       0.00000000
Si      -0.22903740       3.34735065      -1.29558349       0.00000000
Si      -2.98901952      -1.05101451      -1.83792396       0.00000000
Si       3.11641288      -1.91980908       0.57501117       0.00000000
