10
Lattice="16.28999089631971 0.0 0.0 0.0 16.28999089631971 0.0 0.0 0.0 34.281931910070035" Properties=species:S:1:pos:R:3:initial_magmoms:R:1 pbc="T T T"
Si       1.26557010      -1.42172604       1.40318083       0.00000000
Si       1.37541357       1.08445788      -1.60628908       0.00000000
Si      -1.44388044       1.29244860       1.39843620       0.00000000
Si      -1.28578599      -1.29995829      -1.54999812       0.00000000
Si       0.54530775      -1.98751032      -2.98438924       0.00000000
Si      -0.52352802       1.90770561      -3.04517113       0.00000000
Si      -2.57152311      -2.66864409      -0.08763495       0.00000000
Si       2.55355524       2.69477325      -0.17890379       0.00000000
Si       2.63164950      -0.06219522       2.76337209       0.00000000
Si      -0.08674425       2.65632885       2.76673172       0.00000000
