10
Lattice="16.28999089631971 0.0 0.0 0.0 16.28999089631971 0.0 0.0 0.0 34.281931910070035" Properties=species:S:1:pos:R:3:initial_magmoms:R:1 pbc="T T T"
Si       1.35717468       1.35784940      -1.35729101       0.00000000
Si      -1.35773892       1.35722341       1.35773667       0.00000000
Si       1.35749378      -1.35773892       1.35783952       0.00000000
Si      -1.35964485      -1.35900954      -1.35759954       0.00000000
Si      -0.00061902       2.71492954       2.71475342       0.00000000
Si       2.71460862       2.71531561      -0.00020569       0.00000000
Si       2.71476338      -2.71538010       0.00023997       0.00000000
Si      -2.71492398       0.00086337       2.71533622       0.00000000
Si      -2.71503801      -2.71528236       0.00003428       0.00000000
Si      -2.71508688       2.71562349       0.00017141       0.00000000
