10
Lattice="16.28999089631971 0.0 0.0 0.0 16.28999089631971 0.0 0.0 0.0 34.281931910070035" Properties=species:S:1:pos:R:3:initial_magmoms:R:1 pbc="T T T"
Si       1.68671547       1.27019713      -0.89431326       0.00000000
Si      -1.70106696       0.95249259      -1.46126816       0.00000000
Si       1.28243025      -2.03646177      -0.38844879       0.00000000
Si      -1.85541471       0.70848468       2.37248242       0.00000000
Si       0.27899883      -0.01899414       3.13570150       0.00000000
Si      -3.13173621      -0.91634508       1.19739999       0.00000000
Si      -3.21701436      -0.76901832      -1.14258315       0.00000000
Si      -0.03127680      -3.36318453       1.01430009       0.00000000
Si       3.38914169       1.21974048       0.68814160       0.00000000
Si      -1.75787019       2.94411518       1.59668187       0.00000000
