10
Lattice="16.28999089631971 0.0 0.0 0.0 16.28999089631971 0.0 0.0 0.0 34.281931910070035" Properties=species:S:1:pos:R:3:initial_magmoms:R:1 pbc="T T T"
Si      -0.06371019       2.31303732      -0.22454678       0.00000000
Si      -0.36849609      -0.56742957      -2.22681841       0.00000000
Si      -1.53775971      -1.05119370       1.46531343       0.00000000
Si       2.28322269      -0.75017079       0.14802946       0.00000000
Si       0.36118188      -1.87444143       2.90419548       0.00000000
Si       0.55794879      -2.67167403      -2.27532737       0.00000000
Si       1.96638219       2.69934164       1.21433527       0.00000000
Si       3.30890203       1.40223410      -0.25577764       0.00000000
Si       0.97272477       0.96314625      -3.40436915       0.00000000
Si      -2.36928276       0.70156143       3.01262930       0.00000000
