10
Lattice="16.28999089631971 0.0 0.0 0.0 16.28999089631971 0.0 0.0 0.0 34.281931910070035" Properties=species:S:1:pos:R:3:initial_magmoms:R:1 pbc="T T T"
Si      -0.39805755      -1.91412387       1.29822321       0.00000000
Si       1.26941291       1.51255908       1.29006410       0.00000000
Si      -2.03896296       1.11273732      -0.45228178       0.00000000
Si       0.75684155      -0.97062336      -2.03298826       0.00000000
Si      -1.37685591      -0.97285509      -2.95764105       0.00000000
Si      -2.21800635       2.13952860       1.70443004       0.00000000
Si      -0.17091305       2.32041276       2.89291672       0.00000000
Si       0.41158314      -3.74898060      -0.00226261       0.00000000
Si       1.72014092       3.43776015       0.05358269       0.00000000
Si       1.87777925      -2.99643147      -1.65794372       0.00000000
