10
Lattice="16.28999089631971 0.0 0.0 0.0 16.28999089631971 0.0 0.0 0.0 34.281931910070035" Properties=species:S:1:pos:R:3:initial_magmoms:R:1 pbc="T T T"
Si      -1.35749131      -1.35701239       1.35694819       0.00000000
Si       1.35811359       1.35775521       1.35715388       0.00000000
Si       1.35799956      -1.35642920      -1.36157625       0.00000000
Si      -1.35900302       1.35769005      -1.36404455       0.00000000
Si       2.71450044       2.71471221      -0.00109702       0.00000000
Si      -2.71492526      -2.71447860      -0.00013713       0.00000000
Si      -2.71499234       0.00057015       2.71499340       0.00000000
Si       2.71546155       0.00026064       2.71471914       0.00000000
Si       0.00074934      -2.71517999       2.71502768       0.00000000
Si       0.00021177       2.71578735       2.71468486       0.00000000
