10
Lattice="16.28999089631971 0.0 0.0 0.0 16.28999089631971 0.0 0.0 0.0 34.281931910070035" Properties=species:S:1:pos:R:3:initial_magmoms:R:1 pbc="T T T"
Si      -1.34287429      -1.34467434       1.36565580       0.00000000
Si      -1.35434245       1.35705474      -1.35807949       0.00000000
Si       1.36117611      -1.35659862      -1.35746242       0.00000000
Si       1.36130643       1.35718506       1.38183688       0.00000000
Si      -2.71372732       2.71054197       0.00356532       0.00000000
Si      -2.71270824      -0.00151497      -2.71451345       0.00000000
Si       0.00190593       2.71326240      -2.71454773       0.00000000
Si       2.71137276       2.71650411       0.00764488       0.00000000
Si      -2.71467053      -2.71536381       0.00215976       0.00000000
Si       0.00180819      -2.71603170      -2.71451345       0.00000000
