10
Lattice="16.28999089631971 0.0 0.0 0.0 16.28999089631971 0.0 0.0 0.0 34.281931910070035" Properties=species:S:1:pos:R:3:initial_magmoms:R:1 pbc="T T T"
Si       1.83859040       1.15999461      -0.76352761       0.00000000
Si       0.79945130      -0.40881384       2.16085994       0.00000000
Si      -2.05728432       1.05458202       0.37675864       0.00000000
Si      -0.19052621      -1.75117500      -2.01313901       0.00000000
Si      -3.10121268      -1.00289385       0.07144359       0.00000000
Si       3.19388582      -0.92225835      -0.72643454       0.00000000
Si       3.08378171      -0.75424329       1.64004854       0.00000000
Si       0.97562765       2.12529114      -2.70741709       0.00000000
Si      -0.14668493       1.50974091       3.30865394       0.00000000
Si      -2.36738076      -2.53496835      -1.60655507       0.00000000
