10
Lattice="16.28999089631971 0.0 0.0 0.0 16.28999089631971 0.0 0.0 0.0 34.281931910070035" Properties=species:S:1:pos:R:3:initial_magmoms:R:1 pbc="T T T"
Si       1.50754828      -0.11722284       1.81567497       0.00000000
Si       0.52814786       0.75131109      -2.18739417       0.00000000
Si      -0.41676988      -2.28459105      -0.49585414       0.00000000
Si      -2.20522684       0.80141913       0.38855163       0.00000000
Si      -3.08382799      -0.18814950      -1.55904029       0.00000000
Si      -1.77012094       1.13857326      -2.96178916       0.00000000
Si      -0.44885955      -3.28212549       1.63987713       0.00000000
Si       0.82898833       1.49143095       3.33803358       0.00000000
Si       1.47428410      -1.16724366      -3.33518817       0.00000000
Si       3.75195190      -0.12836520       0.92513273       0.00000000
