10
Lattice="16.28999089631971 0.0 0.0 0.0 16.28999089631971 0.0 0.0 0.0 34.281931910070035" Properties=species:S:1:pos:R:3:initial_magmoms:R:1 pbc="T T T"
Si      -2.29066300       0.51940665       0.19043624       0.00000000
Si       0.03208967       0.99753444      -2.13573127       0.00000000
Si       0.05041755      -2.35310679       0.24669292       0.00000000
Si       1.58097219       1.13122647       1.39458977       0.00000000
Si       0.44885955       3.28212549      -1.63987713       0.00000000
Si      -2.20821931      -2.86330959       0.82194406       0.00000000
Si       1.27621887      -2.68413588       2.22205322       0.00000000
Si       1.95640782       3.16490265       0.17579785       0.00000000
Si      -3.27044134      -0.35274366      -1.75475595       0.00000000
Si      -3.24491491      -0.87094485       1.77419381       0.00000000
