10
Lattice="16.28999089631971 0.0 0.0 0.0 16.28999089631971 0.0 0.0 0.0 34.281931910070035" Properties=species:S:1:pos:R:3:initial_magmoms:R:1 pbc="T T T"
Si      -1.33401254      -1.35993807       1.35958790       0.00000000
Si       1.36011726      -1.35303111      -1.35794236       0.00000000
Si      -1.35454771       1.36016613      -1.35694819       0.00000000
Si       1.36554183       1.36327752       1.34577227       0.00000000
Si      -2.57034665       0.05471811       2.73576826       0.00000000
Si       2.71099809      -2.70923877       0.00706208       0.00000000
Si       0.00153126      -2.71248048      -2.71513052       0.00000000
Si      -2.71338440       0.00236205      -2.71478771       0.00000000
Si      -2.71410199      -2.71520091       0.00298253       0.00000000
Si       0.00197109       2.71724898      -2.71475342       0.00000000
