10
Lattice="16.28999089631971 0.0 0.0 0.0 16.28999089631971 0.0 0.0 0.0 34.281931910070035" Properties=species:S:1:pos:R:3:initial_magmoms:R:1 pbc="T T T"
Si       1.23633411      -1.41465618      -1.37618036       0.00000000
Si      -1.50287730       1.30937391      -1.33459636       0.00000000
Si      -0.82202046      -1.80129933       1.41368482       0.00000000
Si       0.89052999       1.90143396       1.37820300       0.00000000
Si       0.02563199      -0.05660775       2.74852114       0.00000000
Si      -2.64519726      -2.59685406       0.08933876       0.00000000
Si       2.59013900      -2.70378162       0.09691508       0.00000000
Si       2.57034665      -0.05471811      -2.73576826       0.00000000
Si      -0.14450568       2.66466933      -2.73014602       0.00000000
Si       2.66890115       2.78139925      -0.08097397       0.00000000
