10
Lattice="16.28999089631971 0.0 0.0 0.0 16.28999089631971 0.0 0.0 0.0 34.281931910070035" Properties=species:S:1:pos:R:3:initial_magmoms:R:1 pbc="T T T"
Si       1.77837115       0.87996529      -1.45917697       0.00000000
Si       1.74088786       0.20774637       1.74813953       0.00000000
Si      -0.89052999      -1.90143396      -1.37820300       0.00000000
Si      -0.86489800      -1.95804171       1.37031815       0.00000000
Si       1.50554624      -2.09603430       1.68564353       0.00000000
Si       0.30786308       2.13589008      -2.73758520       0.00000000
Si      -2.39340729      -0.59206005      -2.71279935       0.00000000
Si       2.78079260       2.46193118      -0.00404527       0.00000000
Si      -1.10791452       3.49639505      -1.17861348       0.00000000
Si      -3.74459763       0.80789768      -1.05471851       0.00000000
