10
Lattice="10.86 0.0 0.0 0.0 10.86 0.0 0.0 0.0 10.86" Properties=species:S:1:pos:R:3:initial_magmoms:R:1 pbc="T T T"
Si       1.46009442      -1.44793122      -1.11293280       0.00000000
Si      -1.25490558      -1.44793122       1.60206720       0.00000000
Si       1.46009442       1.26706878       1.60206720       0.00000000
Si       0.14544798       2.64515934      -2.43318300       0.00000000
Si      -2.50197024      -0.11237928      -2.60698644       0.00000000
Si       0.10259442      -2.80543122      -2.47043280       0.00000000
Si       2.81759442      -0.09043122      -2.47043280       0.00000000
Si      -2.61240558      -2.80543122       0.24456720       0.00000000
Si       2.81759442       2.62456878       0.24456720       0.00000000
Si      -2.83727274       0.17951580       2.68799118       0.00000000
