10
Lattice="10.86 0.0 0.0 0.0 10.86 0.0 0.0 0.0 10.86" Properties=species:S:1:pos:R:3:initial_magmoms:R:1 pbc="T T T"
Si       1.35750000       1.35750000       1.35750000       0.00000000
Si      -1.35750000      -1.35750000       1.35750000       0.00000000
Si      -1.35750000       1.35750000      -1.35750000       0.00000000
Si       1.35750000      -1.35750000      -1.35750000       0.00000000
Si      -2.54117484       2.58156318       0.19463292       0.00000000
Si       2.72749986      -2.50465266       0.06653922       0.00000000
Si       2.61155850       0.23447826      -2.66478336       0.00000000
Si       2.89510224      -0.04880484       2.38289034       0.00000000
Si      -2.62402578       0.12414066       2.68062810       0.00000000
Si      -2.67214644       0.02059056      -2.67775020       0.00000000
