10
Lattice="16.28999089631971 0.0 0.0 0.0 16.28999089631971 0.0 0.0 0.0 34.53561885213415" Properties=species:S:1:pos:R:3:initial_magmoms:R:1 pbc="T T T"
Si      -1.34459452      -1.33945828       1.37987142       0.00000000
Si       1.35738054      -1.35197552      -1.35908097       0.00000000
Si      -1.35921968       1.36129014      -1.35794129       0.00000000
Si       1.35904212       1.36397799       1.37969874       0.00000000
Si       2.71410948      -2.70728794      -0.00031082       0.00000000
Si      -0.00048870      -2.71002123      -2.71602073       0.00000000
Si      -2.71576196      -2.71134737       0.00317728       0.00000000
Si       2.71427238       0.00395847      -2.71640062       0.00000000
Si      -2.71514638       0.00402363      -2.71626248       0.00000000
Si       2.71627605       2.71873584       0.00048350       0.00000000
