10
Lattice="16.28999089631971 0.0 0.0 0.0 16.28999089631971 0.0 0.0 0.0 34.53561885213415" Properties=species:S:1:pos:R:3:initial_magmoms:R:1 pbc="T T T"
Si       1.78456787      -1.50058593       0.72932361       0.00000000
Si       0.72790562       2.15796792      -0.95926189       0.00000000
Si      -0.91689147      -1.67435136      -1.57786424       0.00000000
Si      -1.93009689      -0.22089240       1.99685202       0.00000000
Si       0.40461917       2.10138461       2.27364134       0.00000000
Si      -0.98478819      -0.50464791      -3.64036708       0.00000000
Si       0.52974103      -3.11256288       2.17324624       0.00000000
Si       2.13530786       3.07692755       0.96540754       0.00000000
Si       3.20720615      -0.28077444       2.15886215       0.00000000
Si      -2.79996660      -2.72551248      -0.59349494       0.00000000
