10
Lattice="16.28999089631971 0.0 0.0 0.0 16.28999089631971 0.0 0.0 0.0 34.53561885213415" Properties=species:S:1:pos:R:3:initial_magmoms:R:1 pbc="T T T"
Si      -1.35689184      -1.35593399       1.35731965       0.00000000
Si       1.35747828      -1.35661165      -1.35697429       0.00000000
Si       1.35799956       1.35677781       1.35725058       0.00000000
Si      -1.35767376       1.35819504      -1.35697429       0.00000000
Si      -0.00016290      -2.71124641       2.71608980       0.00000000
Si       2.71378368       0.00073305       2.71381045       0.00000000
Si      -0.00123804       2.71319724      -2.71443209       0.00000000
Si       2.71437012       0.00130320      -2.71353416       0.00000000
Si       2.71420722      -2.71394145       0.00003454       0.00000000
Si      -2.71476108      -2.71397970       0.00037989       0.00000000
