10
Lattice="16.28999089631971 0.0 0.0 0.0 16.28999089631971 0.0 0.0 0.0 34.53561885213415" Properties=species:S:1:pos:R:3:initial_magmoms:R:1 pbc="T T T"
Si      -1.35747828       1.35661165       1.35697429       0.00000000
Si       1.35672894      -1.35732980       1.35700883       0.00000000
Si       1.35689184       1.35791485      -1.35655987       0.00000000
Si      -1.35814617      -1.35779784      -1.35780315       0.00000000
Si       0.00164529       2.71210255      -2.71273984       0.00000000
Si       2.71329498       0.00055386       2.71412127       0.00000000
Si       0.00052128       2.71338946       2.71422487       0.00000000
Si      -2.71437012       0.00067766       2.71429394       0.00000000
Si      -2.71386513       0.00298922      -2.71481198       0.00000000
Si       2.71469592       2.71472524       0.00031082       0.00000000
