10
Lattice="16.28999089631971 0.0 0.0 0.0 16.28999089631971 0.0 0.0 0.0 34.53561885213415" Properties=species:S:1:pos:R:3:initial_magmoms:R:1 pbc="T T T"
Si       0.62314137      -1.38895056       1.76394225       0.00000000
Si      -0.55128618       2.02427685       1.03057798       0.00000000
Si       1.50677613       0.23071527      -1.82569198       0.00000000
Si      -2.26934361      -0.23894172      -0.78067810       0.00000000
Si      -2.28964095       2.21503275      -0.48964628       0.00000000
Si       1.30867344      -3.26682103       0.54808058       0.00000000
Si       0.55302921      -3.15927445      -1.71749182       0.00000000
Si      -1.78531884      -2.77938840      -1.71925314       0.00000000
Si      -1.66373028       1.42351794       3.02238637       0.00000000
Si       0.93123414       2.29897512      -2.80729842       0.00000000
