10
Lattice="16.28999089631971 0.0 0.0 0.0 16.28999089631971 0.0 0.0 0.0 34.53561885213415" Properties=species:S:1:pos:R:3:initial_magmoms:R:1 pbc="T T T"
Si       2.12169105      -0.31120416       1.11070066       0.00000000
Si       0.35137530      -0.92959862      -2.23735678       0.00000000
Si      -1.79271450      -1.46436023       0.84881691       0.00000000
Si      -0.38424852       2.41857630       0.47451967       0.00000000
Si      -1.39727475       0.27784224      -3.11473467       0.00000000
Si       1.23232221       0.11679930       3.32759408       0.00000000
Si       1.89907191       3.26142090       0.21391374       0.00000000
Si      -1.52813232       3.25687599      -1.53227719       0.00000000
Si       3.35575629       1.69653834       1.16896228       0.00000000
Si      -0.95061924      -3.67190351       1.27957993       0.00000000
