10
Lattice="16.28999089631971 0.0 0.0 0.0 16.28999089631971 0.0 0.0 0.0 34.53561885213415" Properties=species:S:1:pos:R:3:initial_magmoms:R:1 pbc="T T T"
Si       1.37046141      -1.23346251       1.50349865       0.00000000
Si       1.66649958       1.19351943      -1.23039915       0.00000000
Si      -1.11425229      -1.44490671      -1.60155365       0.00000000
Si      -1.34298018       1.47892023       1.48137512       0.00000000
Si      -2.70257616      -2.63254545      -0.03874208       0.00000000
Si      -2.62853811      -0.05795982      -2.76723505       0.00000000
Si       2.68892514      -2.73530277       0.23204495       0.00000000
Si       0.52844760       2.54246175      -2.84967161       0.00000000
Si       0.02394630      -2.58929550       2.87569625       0.00000000
Si      -2.79033039       2.73127914      -0.01947119       0.00000000
