10
Lattice="16.28999089631971 0.0 0.0 0.0 16.28999089631971 0.0 0.0 0.0 34.53561885213415" Properties=species:S:1:pos:R:3:initial_magmoms:R:1 pbc="T T T"
Si       1.35578412      -1.35604476       1.35655987       0.00000000
Si      -1.35799956      -1.35677781      -1.35725058       0.00000000
Si       1.35716877       1.35900954      -1.35707790       0.00000000
Si      -1.35599589       1.35799956       1.35963354       0.00000000
Si       2.71277370      -2.71283560      -0.00010361       0.00000000
Si      -2.71489140      -2.71271180       0.00006907       0.00000000
Si      -0.00052128      -2.71338946      -2.71422487       0.00000000
Si       2.71417464       0.00133578      -2.71391405       0.00000000
Si       2.71508688       2.71410948      -0.00027629       0.00000000
Si      -2.71567332       0.00141723      -2.71422487       0.00000000
