10
Lattice="16.28999089631971 0.0 0.0 0.0 16.28999089631971 0.0 0.0 0.0 34.53561885213415" Properties=species:S:1:pos:R:3:initial_magmoms:R:1 pbc="T T T"
Si       0.66699405      -1.17687105      -2.03891501       0.00000000
Si      -1.22091921       2.12599161      -0.20552158       0.00000000
Si      -0.64264050      -1.93681584       1.42352447       0.00000000
Si       2.11211253       1.06176591       1.03458411       0.00000000
Si       1.07080686       2.96145684       0.01222562       0.00000000
Si       1.04853843       1.21244841       3.22600850       0.00000000
Si       1.48537107       0.66546279      -3.31113884       0.00000000
Si      -2.05539075      -0.90111393       2.96022222       0.00000000
Si      -1.32014160       1.32616890       3.35855627       0.00000000
Si      -2.60553663       2.33839692       1.68036601       0.00000000
