10
Lattice="16.28999089631971 0.0 0.0 0.0 16.28999089631971 0.0 0.0 0.0 34.53561885213415" Properties=species:S:1:pos:R:3:initial_magmoms:R:1 pbc="T T T"
Si      -1.28539503       1.01222802      -1.67819026       0.00000000
Si      -0.85219506      -0.19766286       2.18510436       0.00000000
Si       2.36868003      -0.11372049      -0.13254778       0.00000000
Si      -0.73524915      -2.22728283      -0.39833405       0.00000000
Si      -0.83189772      -2.65163733       1.89407254       0.00000000
Si       0.09922239       0.79982271      -3.56407786       0.00000000
Si      -1.46109897       3.24431640      -1.02114975       0.00000000
Si       2.94422202      -2.18198034       0.84905866       0.00000000
Si      -3.43688049      -0.02754639      -1.54743834       0.00000000
Si       0.77416596       3.36028491      -1.54384663       0.00000000
