10
Lattice="16.28999089631971 0.0 0.0 0.0 16.28999089631971 0.0 0.0 0.0 34.53561885213415" Properties=species:S:1:pos:R:3:initial_magmoms:R:1 pbc="T T T"
Si      -1.83720249      -1.39092165      -0.64191391       0.00000000
Si      -1.17566559       2.16033093       0.20593601       0.00000000
Si       1.56053313      -0.42288840      -1.87690833       0.00000000
Si       0.61908516      -0.58784094       2.50915225       0.00000000
Si       2.59281414      -1.94158881       0.14960838       0.00000000
Si       1.14893370       3.23563383       0.88749683       0.00000000
Si      -1.90128735      -2.66041764       1.41122978       0.00000000
Si       0.12235419      -1.50008094      -3.54701725       0.00000000
Si      -1.13617863      -3.10818087      -2.20199229       0.00000000
Si      -0.42788943      -2.56780899       3.21412824       0.00000000
