10
Lattice="16.28999089631971 0.0 0.0 0.0 16.28999089631971 0.0 0.0 0.0 34.53561885213415" Properties=species:S:1:pos:R:3:initial_magmoms:R:1 pbc="T T T"
Si       0.98947089       1.73369583      -1.15818716       0.00000000
Si       1.77197733      -0.77338404       1.28662520       0.00000000
Si      -1.65420063       0.96674634       1.31708563       0.00000000
Si      -0.61639731      -1.37863899      -1.79170891       0.00000000
Si      -1.26153018       0.37512612      -3.24002996       0.00000000
Si       2.75975406       0.59508999      -2.17629777       0.00000000
Si       1.35703845      -3.04000722       1.48002477       0.00000000
Si       1.06298766      -0.19044639       3.51690218       0.00000000
Si       3.64992111      -0.43787520      -0.25024523       0.00000000
Si      -2.82402625      -2.03611968      -1.26839038       0.00000000
