10
Lattice="16.28999089631971 0.0 0.0 0.0 16.28999089631971 0.0 0.0 0.0 34.53561885213415" Properties=species:S:1:pos:R:3:initial_magmoms:R:1 pbc="T T T"
Si      -0.55386000       0.85377519      -2.17764466       0.00000000
Si       1.00263321       1.64840139       1.47507378       0.00000000
Si      -1.76994108      -1.14158691       1.34748187       0.00000000
Si       1.54883691      -1.33040430      -1.48271855       0.00000000
Si      -2.14861842      -0.88523118      -2.55587897       0.00000000
Si      -0.28797462      -2.38604517      -2.53501945       0.00000000
Si      -0.32259087      -2.39394582       2.84832818       0.00000000
Si       2.40780861       0.32391036       2.86923260       0.00000000
Si       2.68688889      -2.67934662       0.13655391       0.00000000
Si       2.05469028       3.29359365       0.09673432       0.00000000
