10
Lattice="16.28999089631971 0.0 0.0 0.0 16.28999089631971 0.0 0.0 0.0 34.53561885213415" Properties=species:S:1:pos:R:3:initial_magmoms:R:1 pbc="T T T"
Si      -1.35663120      -1.35674523      -1.35690522       0.00000000
Si       1.35826020      -1.35495333       1.36046239       0.00000000
Si       1.35817875       1.35865116      -1.35738872       0.00000000
Si      -1.35580041       1.35938421       1.36122218       0.00000000
Si      -0.00649971      -2.69876430       2.72641595       0.00000000
Si      -2.71380974       0.00109143      -2.71470837       0.00000000
Si       0.00094482      -2.71401174      -2.71515734       0.00000000
Si      -2.71562934      -2.71399545       0.00031082       0.00000000
Si       0.00092853       2.71533123      -2.71429394       0.00000000
Si       2.71572219      -2.71401174       0.00051803       0.00000000
