10
Lattice="16.28999089631971 0.0 0.0 0.0 16.28999089631971 0.0 0.0 0.0 34.53561885213415" Properties=species:S:1:pos:R:3:initial_magmoms:R:1 pbc="T T T"
Si      -1.50952914       1.54059417       0.96098867       0.00000000
Si      -1.61979615      -1.84235013       0.37709463       0.00000000
Si       2.06501814      -0.12551445       1.43954901       0.00000000
Si       0.43245063       0.80764191      -2.34897596       0.00000000
Si      -0.40698936       3.01625707      -2.08104848       0.00000000
Si      -0.38276613       3.27564437       1.88422988       0.00000000
Si       1.85960124      -2.14027794       2.59400632       0.00000000
Si       0.73968003       3.80765948      -0.12577879       0.00000000
Si      -2.97276047      -1.13029794       2.26405283       0.00000000
Si      -0.46796283      -3.92851269       0.26516463       0.00000000
