10
Lattice="16.28999089631971 0.0 0.0 0.0 16.28999089631971 0.0 0.0 0.0 34.53561885213415" Properties=species:S:1:pos:R:3:initial_magmoms:R:1 pbc="T T T"
Si       1.17566559      -2.16033093      -0.20593601       0.00000000
Si      -2.15489007      -0.08314416       1.48144073       0.00000000
Si       2.32459929       1.07530290       0.68156082       0.00000000
Si      -0.48433428       0.97262703      -2.43977016       0.00000000
Si      -0.66153690      -3.55125258      -0.84784992       0.00000000
Si      -3.51109773      -1.23693228      -0.27303876       0.00000000
Si       1.99518291       0.86574834       3.07370633       0.00000000
Si      -2.45171016      -2.16762885      -2.26301676       0.00000000
Si       1.79475075      -2.74817187       2.30321624       0.00000000
Si      -2.99433006       2.12547100       1.74936821       0.00000000
