10
Lattice="16.28999089631971 0.0 0.0 0.0 16.28999089631971 0.0 0.0 0.0 34.53561885213415" Properties=species:S:1:pos:R:3:initial_magmoms:R:1 pbc="T T T"
Si       2.00050974      -0.97665066      -0.63414339       0.00000000
Si      -1.33556823      -1.36221867       1.33324831       0.00000000
Si       0.51165261       2.10671144       0.89782299       0.00000000
Si      -1.15618275       0.83704766      -1.86647856       0.00000000
Si       3.06025569       0.88163013      -1.60915352       0.00000000
Si      -2.86102899       0.22745727       2.22944812       0.00000000
Si       2.37472362       2.75950061      -0.39329185       0.00000000
Si       1.29160152      -2.56411116      -2.31115944       0.00000000
Si      -2.28294576      -0.89800254      -2.78971978       0.00000000
Si       3.17391102      -1.39232259       1.49767248       0.00000000
