10
Lattice="16.28999089631971 0.0 0.0 0.0 16.28999089631971 0.0 0.0 0.0 34.53561885213415" Properties=species:S:1:pos:R:3:initial_magmoms:R:1 pbc="T T T"
Si       2.21004801       0.11352501       0.82329508       0.00000000
Si      -0.57184416       1.09722924      -2.04412989       0.00000000
Si      -0.46372743      -2.33950464      -0.16656538       0.00000000
Si      -1.31580846       0.62768628       1.96148610       0.00000000
Si      -1.21303485      -2.18821941      -2.39746400       0.00000000
Si      -2.54433510      -0.18489150      -2.35270581       0.00000000
Si       1.86730641      -1.30359096       2.70970071       0.00000000
Si      -0.01381392       3.36999116      -1.55545061       0.00000000
Si       3.54652848      -1.09048518      -0.79200579       0.00000000
Si       0.15529257      -0.20432547       3.81826015       0.00000000
