10
Lattice="16.28999089631971 0.0 0.0 0.0 16.28999089631971 0.0 0.0 0.0 34.53561885213415" Properties=species:S:1:pos:R:3:initial_magmoms:R:1 pbc="T T T"
Si       1.35733167      -1.35684297      -1.35680162       0.00000000
Si      -1.35765747       1.35736425      -1.35662894       0.00000000
Si      -1.35905841      -1.35680713       1.35718151       0.00000000
Si       1.35676152       1.36031274       1.35794129       0.00000000
Si      -0.00153126       2.71417464       2.71284345       0.00000000
Si       0.00039096       2.71402803      -2.71446662       0.00000000
Si       2.71546155      -0.00001629      -2.71329241       0.00000000
Si      -2.71546155       0.00055386      -2.71349963       0.00000000
Si      -2.71466334       2.71503801       0.00020721       0.00000000
Si      -2.71604799      -0.00001629       2.71384498       0.00000000
