10
Lattice="16.28999089631971 0.0 0.0 0.0 16.28999089631971 0.0 0.0 0.0 34.53561885213415" Properties=species:S:1:pos:R:3:initial_magmoms:R:1 pbc="T T T"
Si      -1.35806472       1.35699370      -1.36222371       0.00000000
Si       1.35925389      -1.35970004      -1.36184382       0.00000000
Si       1.35457866       1.35765182       1.37431118       0.00000000
Si      -1.35721764      -1.36315352       1.38902337       0.00000000
Si       2.64064158      -0.14962997       2.70331161       0.00000000
Si      -2.71505430       2.71378454      -0.00556024       0.00000000
Si       2.71870326       2.71024961      -0.00096700       0.00000000
Si      -2.71329498      -2.71833491      -0.00027629       0.00000000
Si       0.00099369       2.71380083      -2.71940522       0.00000000
Si      -2.71463076      -0.00088996      -2.71933615       0.00000000
