10
Lattice="16.28999089631971 0.0 0.0 0.0 16.28999089631971 0.0 0.0 0.0 34.53561885213415" Properties=species:S:1:pos:R:3:initial_magmoms:R:1 pbc="T T T"
Si      -1.40056533       1.27089693      -1.45781836       0.00000000
Si       0.70004646       1.75293432       1.50589197       0.00000000
Si       1.30417740      -1.44750334      -1.44003250       0.00000000
Si      -1.78359210      -0.96485670       1.48002477       0.00000000
Si       2.43675594       2.51643033      -0.06882953       0.00000000
Si      -2.71215468       2.67773391      -0.08229843       0.00000000
Si      -3.53053170       0.83540007       1.18992541       0.00000000
Si      -0.05093883       2.62282032      -2.82090546       0.00000000
Si       2.66830200      -0.09490554      -2.81531069       0.00000000
Si      -2.77412184      -2.76602457       0.04980039       0.00000000
