10
Lattice="16.28999089631971 0.0 0.0 0.0 16.28999089631971 0.0 0.0 0.0 34.53561885213415" Properties=species:S:1:pos:R:3:initial_magmoms:R:1 pbc="T T T"
Si      -0.48974256      -2.23332642      -0.36300409       0.00000000
Si      -0.41920686       1.17879327      -1.97588747       0.00000000
Si      -1.48080987       0.34599960       1.82234202       0.00000000
Si       2.26090539       0.48435057       0.57239367       0.00000000
Si       0.70012791      -0.58785723      -3.05906322       0.00000000
Si       0.82745055      -2.73342032       1.48665562       0.00000000
Si      -0.67157154       2.54757681       2.04340464       0.00000000
Si       1.99567161      -0.87959484       2.59642381       0.00000000
Si       1.67457942       1.87605414       2.37560294       0.00000000
Si      -2.83871169      -2.06544982      -0.40758960       0.00000000
