10
Lattice="16.28999089631971 0.0 0.0 0.0 16.28999089631971 0.0 0.0 0.0 34.53561885213415" Properties=species:S:1:pos:R:3:initial_magmoms:R:1 pbc="T T T"
Si       0.45779787       2.07348894       0.93684826       0.00000000
Si      -2.12779980      -0.49219420      -0.80298812       0.00000000
Si       0.80176122      -1.73209615       1.36902723       0.00000000
Si       1.26065052      -0.30656151      -1.99498567       0.00000000
Si      -1.43257518      -2.68119458      -1.43457587       0.00000000
Si       0.93955833       2.44908747      -2.21580654       0.00000000
Si       3.37044987      -0.78763616      -0.96309534       0.00000000
Si       0.28338084      -3.60472355      -0.03622788       0.00000000
Si      -2.21583096       0.91903293      -2.76906747       0.00000000
Si       3.19244904      -1.38613728       1.38681309       0.00000000
