10
Lattice="16.28999089631971 0.0 0.0 0.0 16.28999089631971 0.0 0.0 0.0 34.53561885213415" Properties=species:S:1:pos:R:3:initial_magmoms:R:1 pbc="T T T"
Si      -1.34231229       1.31005809      -1.39677662       0.00000000
Si       1.34817669       1.36471104       1.36272448       0.00000000
Si      -1.36868580      -1.35011520       1.35802763       0.00000000
Si       1.31865921      -1.49481927      -1.30829631       0.00000000
Si      -2.43921573      -0.28572660      -2.74264567       0.00000000
Si       2.69992089       2.70728397      -0.01260205       0.00000000
Si       2.70288567       0.00514764       2.71911167       0.00000000
Si       2.70853830      -2.71814940       0.03786833       0.00000000
Si      -0.01066995      -2.70925506       2.71866270       0.00000000
Si      -2.71829601       2.71753038      -0.00996699       0.00000000
