10
Lattice="16.28999089631971 0.0 0.0 0.0 16.28999089631971 0.0 0.0 0.0 34.53561885213415" Properties=species:S:1:pos:R:3:initial_magmoms:R:1 pbc="T T T"
Si       1.35791811       1.35509994       1.35680162       0.00000000
Si       1.35700587      -1.35767376      -1.35683615       0.00000000
Si      -1.35803214       1.35757602      -1.35752686       0.00000000
Si      -1.35716877      -1.35900954       1.35707790       0.00000000
Si       2.71313208      -0.00086337       2.71263623       0.00000000
Si      -0.00079821      -2.71448415      -2.71370684       0.00000000
Si      -0.00146610       2.71399545      -2.71446662       0.00000000
Si      -0.00138465      -2.71505430       2.71363777       0.00000000
Si       2.71420722       2.71466334      -0.00041443       0.00000000
Si       2.71466334      -2.71503801      -0.00020721       0.00000000
