10
Lattice="16.28999089631971 0.0 0.0 0.0 16.28999089631971 0.0 0.0 0.0 34.53561885213415" Properties=species:S:1:pos:R:3:initial_magmoms:R:1 pbc="T T T"
Si      -2.39094846       0.91075761      -0.26702955       0.00000000
Si      -0.08588088       1.85096754       1.84914167       0.00000000
Si       0.36613404      -2.59035435       0.33544465       0.00000000
Si       0.32979105       2.70405855      -0.35827271       0.00000000
Si       0.39451122      -0.41034510      -3.02456212       0.00000000
Si       2.84133438       1.58210109       0.13209882       0.00000000
Si       2.78658369      -1.74777039      -0.53854874       0.00000000
Si      -1.42487001       1.52723637      -3.11245532       0.00000000
Si      -1.74296484      -3.47849655      -0.41515291       0.00000000
Si      -0.65757843      -1.26011295       3.71147596       0.00000000
