10
Lattice="16.28999089631971 0.0 0.0 0.0 16.28999089631971 0.0 0.0 0.0 34.53561885213415" Properties=species:S:1:pos:R:3:initial_magmoms:R:1 pbc="T T T"
Si      -1.19374749      -2.01660426      -0.18597441       0.00000000
Si       2.36775150      -0.11720655       0.31040632       0.00000000
Si      -0.62204994       1.09447623      -2.04830870       0.00000000
Si      -0.98117928       0.87255756       2.02043844       0.00000000
Si       2.32451784       2.02136094       1.29954153       0.00000000
Si      -2.64345975       2.05208388      -1.20076960       0.00000000
Si      -2.49416190       2.44139859       1.12113042       0.00000000
Si      -0.77454063      -3.19539753       1.78991305       0.00000000
Si       3.25485603      -0.23587920      -1.87083005       0.00000000
Si       0.66604923       2.28848436       2.95341870       0.00000000
