10
Lattice="16.28999089631971 0.0 0.0 0.0 16.28999089631971 0.0 0.0 0.0 34.53561885213415" Properties=species:S:1:pos:R:3:initial_magmoms:R:1 pbc="T T T"
Si      -1.32787935       1.38891798       1.35002227       0.00000000
Si       1.40061420      -1.34807895       1.35495396       0.00000000
Si       1.09827180       1.77217281      -1.16930453       0.00000000
Si      -1.45404540      -1.26187227      -1.42772197       0.00000000
Si       2.17386792       0.41625837      -2.80590115       0.00000000
Si      -2.65870719       0.53258526      -2.52346870       0.00000000
Si      -2.64161898      -2.74530483      -0.02922060       0.00000000
Si      -2.66949117       0.02713914       2.72772485       0.00000000
Si       0.04887000      -2.69065188       2.73028049       0.00000000
Si      -2.57145795       2.83792977      -0.27109785       0.00000000
