10
Lattice="16.28999089631971 0.0 0.0 0.0 16.28999089631971 0.0 0.0 0.0 34.53561885213415" Properties=species:S:1:pos:R:3:initial_magmoms:R:1 pbc="T T T"
Si       1.40683698      -1.87357806      -0.25017616       0.00000000
Si      -2.26983231       0.28743705      -0.57709051       0.00000000
Si       1.19715210       1.74545721      -1.06311055       0.00000000
Si      -0.49902786       0.96632280       2.14635538       0.00000000
Si      -0.29610333      -1.06631082      -2.93663438       0.00000000
Si      -2.53229679       1.84523346       1.19683254       0.00000000
Si       2.11014144      -1.20759399      -2.47879543       0.00000000
Si       1.68787206       1.93378590       2.62408686       0.00000000
Si      -3.31680690      -1.69253100       0.12788547       0.00000000
Si      -0.99131166      -0.89414181       3.48695978       0.00000000
