10
Lattice="16.28999089631971 0.0 0.0 0.0 16.28999089631971 0.0 0.0 0.0 34.53561885213415" Properties=species:S:1:pos:R:3:initial_magmoms:R:1 pbc="T T T"
Si      -0.32941638      -0.20955456       2.39214551       0.00000000
Si       0.25585074       2.37999736      -0.40451593       0.00000000
Si       2.39001993      -0.73365273      -0.78831048       0.00000000
Si      -2.32459929      -1.07530290      -0.68156082       0.00000000
Si      -1.14893370      -3.23563383      -0.88749683       0.00000000
Si      -1.23152400       3.08161907       1.37438026       0.00000000
Si       1.73126862       0.63631998       3.14415903       0.00000000
Si      -1.83391191       1.46168445       3.02483840       0.00000000
Si       3.74624388       1.17463185       0.02420948       0.00000000
Si       2.93713587      -2.36545461       1.13563539       0.00000000
