10
Lattice="16.28999089631971 0.0 0.0 0.0 16.28999089631971 0.0 0.0 0.0 34.53561885213415" Properties=species:S:1:pos:R:3:initial_magmoms:R:1 pbc="T T T"
Si       0.34774263      -2.05443683      -1.09902761       0.00000000
Si       1.09084356       1.45808532      -1.50865482       0.00000000
Si      -2.31865344       0.23773626      -0.44996483       0.00000000
Si       1.03216698      -0.06318891       2.15530011       0.00000000
Si       3.25602632       0.74733633      -0.93246223       0.00000000
Si      -0.75787596       1.30994406       3.18149206       0.00000000
Si      -1.03298148      -1.41936236      -3.06469253       0.00000000
Si       3.02535666       1.13008617       1.44966795       0.00000000
Si      -3.04795674      -1.95767423       0.05525702       0.00000000
Si      -1.27309608      -3.47052653      -0.22683007       0.00000000
