10
Lattice="16.28999089631971 0.0 0.0 0.0 16.28999089631971 0.0 0.0 0.0 34.53561885213415" Properties=species:S:1:pos:R:3:initial_magmoms:R:1 pbc="T T T"
Si       0.85072896      -2.05956751      -0.71433514       0.00000000
Si       1.08466965      -0.05864400       2.10815896       0.00000000
Si       0.80322732       2.17046331      -1.19755779       0.00000000
Si      -2.42044965      -0.84258396       0.87399339       0.00000000
Si      -1.03915539      -2.93609168       0.55212125       0.00000000
Si      -2.78658369       1.74777039       0.53854874       0.00000000
Si       0.05475069       3.32987148       0.67064756       0.00000000
Si       1.00444140       2.26838250       2.56516906       0.00000000
Si      -2.39207247       1.33742529      -2.48601338       0.00000000
Si      -0.00617391      -1.51672932       3.61681378       0.00000000
