10
Lattice="16.28999089631971 0.0 0.0 0.0 16.28999089631971 0.0 0.0 0.0 34.53561885213415" Properties=species:S:1:pos:R:3:initial_magmoms:R:1 pbc="T T T"
Si      -1.34596125      -1.36792017      -1.37728125       0.00000000
Si       1.36620972       1.35516510      -1.38076935       0.00000000
Si       1.45158058      -1.26328950       1.43015531       0.00000000
Si      -1.57750731       1.24341570       1.36919991       0.00000000
Si      -2.70280422       2.69335602      -0.04917875       0.00000000
Si       2.71069740       2.69066817       0.00915194       0.00000000
Si      -2.71008585      -2.72051797      -0.00200307       0.00000000
Si      -2.70690930      -0.00405621      -2.73777818       0.00000000
Si       2.73762151      -2.70853504       0.00058711       0.00000000
Si       0.00864999       2.70804960      -2.73833075       0.00000000
