10
Lattice="16.28999089631971 0.0 0.0 0.0 16.28999089631971 0.0 0.0 0.0 34.53561885213415" Properties=species:S:1:pos:R:3:initial_magmoms:R:1 pbc="T T T"
Si      -1.35892809      -1.35329175       1.38016498       0.00000000
Si       1.35605032       1.35984033       1.37664234       0.00000000
Si      -1.45653777       1.24981767      -1.43668255       0.00000000
Si       1.18496948      -1.52340822      -1.46486363       0.00000000
Si      -2.37363219      -0.65981016      -2.72862420       0.00000000
Si      -2.72077209       2.70407484       0.00549462       0.00000000
Si       2.72229425       2.70658350      -0.00002763       0.00000000
Si       2.70650924      -2.72530071      -0.01182846       0.00000000
Si      -2.71215468      -2.72135853       0.05596500       0.00000000
Si      -0.71335539      -2.44304388      -2.88659021       0.00000000
