10
Lattice="16.28999089631971 0.0 0.0 0.0 16.28999089631971 0.0 0.0 0.0 34.53561885213415" Properties=species:S:1:pos:R:3:initial_magmoms:R:1 pbc="T T T"
Si       0.87474042       0.43657200       2.17139371       0.00000000
Si      -2.04529095       1.32336702      -0.07811961       0.00000000
Si      -1.05526620      -2.20752306       0.34466567       0.00000000
Si       1.55658673      -0.51448707      -1.99218829       0.00000000
Si       1.73193066      -1.78214229       2.42733733       0.00000000
Si      -2.74859541       0.65738295       2.15049965       0.00000000
Si      -1.01340090      -1.54932561      -3.15396715       0.00000000
Si      -0.30678957      -3.36693123      -1.52353968       0.00000000
Si       2.01288429      -2.78783802      -1.41665188       0.00000000
Si      -3.56680953      -1.08556560      -0.14570586       0.00000000
