10
Lattice="16.28999089631971 0.0 0.0 0.0 16.28999089631971 0.0 0.0 0.0 34.53561885213415" Properties=species:S:1:pos:R:3:initial_magmoms:R:1 pbc="T T T"
Si      -0.91311966      -2.07619308      -0.67676037       0.00000000
Si      -1.54041498       1.50410457      -1.02940377       0.00000000
Si       2.01807036       0.49262589      -1.22404662       0.00000000
Si      -0.18524988       0.06975378       2.41369575       0.00000000
Si      -2.54119113      -2.23822971       1.13249265       0.00000000
Si       2.97778986      -1.65985326       1.45975235       0.00000000
Si      -1.87271469       0.50671674      -3.16332631       0.00000000
Si      -1.58754195      -1.80307494      -2.92406341       0.00000000
Si      -0.48008259       3.65495472      -0.94555124       0.00000000
Si      -1.86639417      -1.34858394       3.17620811       0.00000000
