10
Lattice="16.28999089631971 0.0 0.0 0.0 16.28999089631971 0.0 0.0 0.0 34.53561885213415" Properties=species:S:1:pos:R:3:initial_magmoms:R:1 pbc="T T T"
Si      -1.43518158       1.22233644       1.36066961       0.00000000
Si      -1.35739683      -1.34420193      -1.34916924       0.00000000
Si       1.35529542       1.36971207      -1.34243479       0.00000000
Si       1.17446013      -1.36731744       1.50672082       0.00000000
Si       0.36558018       2.28622724       2.48276703       0.00000000
Si       2.18558436       0.43060986       2.75421714       0.00000000
Si      -0.69457302      -2.18800764       2.88358764       0.00000000
Si      -2.46461184      -0.53506134       2.85644263       0.00000000
Si      -0.00441459      -2.70343953      -2.70410593       0.00000000
Si       2.70203437      -2.70547578       0.05477352       0.00000000
