10
Lattice="16.28999089631971 0.0 0.0 0.0 16.28999089631971 0.0 0.0 0.0 34.53561885213415" Properties=species:S:1:pos:R:3:initial_magmoms:R:1 pbc="T T T"
Si       0.07827345       1.30059360      -1.96076086       0.00000000
Si       1.13484285      -2.06190675       0.27417843       0.00000000
Si       0.80283636       1.27298205       1.84945249       0.00000000
Si      -2.18689992      -0.96746310      -0.47773148       0.00000000
Si      -0.51199470      -2.89960371       1.79941035       0.00000000
Si      -1.68787206      -1.93378590      -2.62408686       0.00000000
Si      -1.69658721       2.81344590      -1.67867376       0.00000000
Si      -0.49071996      -0.18832869      -3.68719741       0.00000000
Si      -0.83996127       2.86329330       2.36182322       0.00000000
Si       2.84182308       2.45669490       1.29553539       0.00000000
