10
Lattice="16.28999089631971 0.0 0.0 0.0 16.28999089631971 0.0 0.0 0.0 34.53561885213415" Properties=species:S:1:pos:R:3:initial_magmoms:R:1 pbc="T T T"
Si       2.27652750       0.49959801      -0.38027191       0.00000000
Si       0.23618871      -2.24471313      -0.82571257       0.00000000
Si      -2.01683884       1.07492823      -0.77567043       0.00000000
Si       0.66230253       1.80437814       2.79134295       0.00000000
Si      -3.43938361      -0.85983507      -0.62568216       0.00000000
Si       3.42041130      -0.33870168       1.62652495       0.00000000
Si       2.69146638       2.76622119      -0.57367149       0.00000000
Si      -1.90453720       1.50348555      -3.12868707       0.00000000
Si      -0.98867268      -2.59701696      -2.82397913       0.00000000
Si       2.40738507      -2.47943574      -1.96272939       0.00000000
