10
Lattice="16.28999089631971 0.0 0.0 0.0 16.28999089631971 0.0 0.0 0.0 34.53561885213415" Properties=species:S:1:pos:R:3:initial_magmoms:R:1 pbc="T T T"
Si       1.23334848      -1.36857177       1.42573475       0.00000000
Si       1.36475991       1.34381097      -1.36595356       0.00000000
Si      -1.34930070      -1.37036367      -1.36419224       0.00000000
Si      -1.30917843       1.31093775       1.53814825       0.00000000
Si      -0.43152210      -2.35861281       2.84684172       0.00000000
Si      -2.71819338       2.69592984       0.03277432       0.00000000
Si       2.70073539      -2.72085354       0.00842670       0.00000000
Si       0.00649971       2.69876430      -2.72641595       0.00000000
Si       2.73608469       2.69333973       0.02255177       0.00000000
Si      -2.70912963      -0.01523115      -2.72610513       0.00000000
