10
Lattice="16.28999089631971 0.0 0.0 0.0 16.28999089631971 0.0 0.0 0.0 34.53561885213415" Properties=species:S:1:pos:R:3:initial_magmoms:R:1 pbc="T T T"
Si      -1.26666546       1.82548998      -0.93664104       0.00000000
Si      -1.40563545      -1.96102278       0.28585148       0.00000000
Si       1.58246273       0.43583895       1.84233815       0.00000000
Si       1.43063993      -0.34940421      -1.98621362       0.00000000
Si       2.82871289      -1.76774193      -0.63718252       0.00000000
Si       2.73429605      -1.65032361       1.73040815       0.00000000
Si      -2.28037587      -2.39759478      -1.88554224       0.00000000
Si      -1.00420682       3.65788692       0.60371749       0.00000000
Si       0.22949841       1.14789114       3.72929635       0.00000000
Si       2.27850185       1.93204287      -2.63821193       0.00000000
