10
Lattice="16.28999089631971 0.0 0.0 0.0 16.28999089631971 0.0 0.0 0.0 34.53561885213415" Properties=species:S:1:pos:R:3:initial_magmoms:R:1 pbc="T T T"
Si      -1.32326018      -1.78466724      -0.70069356       0.00000000
Si       1.14860790      -0.49708935       1.98351984       0.00000000
Si      -1.59417917       1.72343313       0.40237472       0.00000000
Si       1.53068985       0.46327131      -1.81443336       0.00000000
Si      -1.47669569      -1.26921906      -3.10071320       0.00000000
Si       2.68599294       2.41644231      -1.02940377       0.00000000
Si       2.43498033       1.41330411       2.55470476       0.00000000
Si      -1.03175191       3.60595440      -0.90397033       0.00000000
Si       0.27538408       0.20976633      -3.84930769       0.00000000
Si      -0.22820009      -0.52452171       3.85362465       0.00000000
