10
Lattice="16.28999089631971 0.0 0.0 0.0 16.28999089631971 0.0 0.0 0.0 34.53561885213415" Properties=species:S:1:pos:R:3:initial_magmoms:R:1 pbc="T T T"
Si      -1.35596168      -1.35615879       1.35756140       0.00000000
Si       1.36010097      -1.35267762      -1.35759594       0.00000000
Si      -1.35185171       1.36024758      -1.36094589       0.00000000
Si       1.35881406       1.35913986       1.35721604       0.00000000
Si       0.00395847      -2.72430244      -2.68687265       0.00000000
Si      -2.71218157      -2.71246338      -0.00013814       0.00000000
Si      -2.71293094       0.00100998       2.71432848       0.00000000
Si       0.00172674      -2.71303488       2.71457023       0.00000000
Si       2.71581993      -2.71346468      -0.00058711       0.00000000
Si       2.71524978       2.71414206      -0.00024175       0.00000000
