10
Lattice="16.28999089631971 0.0 0.0 0.0 16.28999089631971 0.0 0.0 0.0 34.53561885213415" Properties=species:S:1:pos:R:3:initial_magmoms:R:1 pbc="T T T"
Si       1.33556823       1.36221867      -1.33324831       0.00000000
Si      -1.52546076       1.58967594       0.89619981       0.00000000
Si       1.35798327      -0.66648906       1.86267964       0.00000000
Si      -1.15530309      -1.95317100      -0.78502959       0.00000000
Si      -1.58798178       0.90881910       3.20248973       0.00000000
Si      -0.25101261      -1.00313820       3.58410853       0.00000000
Si      -2.68599294      -2.41644231       1.02940377       0.00000000
Si       0.47029230      -3.68043228      -1.12506748       0.00000000
Si       0.17938548       2.19926633      -3.19972687       0.00000000
Si       3.33607797       0.38556801      -1.96739170       0.00000000
