10
Lattice="10.86 0.0 0.0 0.0 10.86 0.0 0.0 0.0 10.86" Properties=species:S:1:pos:R:3:initial_magmoms:R:1 pbc="T T T"
Si      -1.33103418      -1.27603914       1.23986448       0.00000000
Si       1.38396582      -1.27603914      -1.47513552       0.00000000
Si       1.44229488       1.75518234       0.80839668       0.00000000
Si      -1.33103418       1.43896086      -1.47513552       0.00000000
Si       0.02646582      -2.63353914       2.59736448       0.00000000
Si       2.61545724       0.23606382       2.62118046       0.00000000
Si      -2.68853418       0.08146086       2.59736448       0.00000000
Si      -2.68853418      -2.63353914      -0.11763552       0.00000000
Si       2.74146582      -2.63353914      -0.11763552       0.00000000
Si       0.02646582      -2.63353914      -2.83263552       0.00000000
