10
Lattice="10.86 0.0 0.0 0.0 10.86 0.0 0.0 0.0 10.86" Properties=species:S:1:pos:R:3:initial_magmoms:R:1 pbc="T T T"
Si      -1.18369656       1.11907956      -1.41215838       0.00000000
Si       1.53130344       1.11907956       1.30284162       0.00000000
Si      -1.18369656      -1.59592044       1.30284162       0.00000000
Si       1.58963250      -1.27969896      -1.84362618       0.00000000
Si      -2.54119656       2.47657956      -0.05465838       0.00000000
Si       0.24634824       2.25415590      -2.76080748       0.00000000
Si       0.17380344       2.47657956       2.66034162       0.00000000
Si      -2.54119656      -0.23842044       2.66034162       0.00000000
Si       2.83426452       2.39466258      -0.14719644       0.00000000
Si      -2.54119656      -0.23842044      -2.76965838       0.00000000
