10
Lattice="10.86 0.0 0.0 0.0 10.86 0.0 0.0 0.0 10.86" Properties=species:S:1:pos:R:3:initial_magmoms:R:1 pbc="T T T"
Si      -1.21573356      -1.31894700       1.40985606       0.00000000
Si       1.49926644      -1.31894700      -1.30514394       0.00000000
Si       1.49926644       1.39605300       1.40985606       0.00000000
Si      -2.69924214      -2.52184404       0.07617204       0.00000000
Si       0.22892880       2.65926648      -2.58875250       0.00000000
Si      -2.62777248       2.67163602      -0.04018200       0.00000000
Si      -2.57323356       0.03855300       2.76735606       0.00000000
Si      -0.01582302      -2.77976904      -2.65966830       0.00000000
Si       0.14176644      -2.67644700       2.76735606       0.00000000
Si       2.85676644       0.03855300      -2.66264394       0.00000000
