10
Lattice="16.28999089631971 0.0 0.0 0.0 16.28999089631971 0.0 0.0 0.0 34.56409401068381" Properties=species:S:1:pos:R:3:initial_magmoms:R:1 pbc="T T T"
Si       0.48562119      -0.07099182       2.24804993       0.00000000
Si      -2.04793645       0.86807781      -0.82328262       0.00000000
Si      -0.02111184      -2.30523048      -0.59616183       0.00000000
Si       2.31063876       1.41755580      -1.34119129       0.00000000
Si      -1.13539671       1.29158523      -2.95585384       0.00000000
Si       0.76862736      -1.91632302      -2.76671902       0.00000000
Si       1.86487920      -3.11564169       0.84640601       0.00000000
Si       0.70827291       2.72315043      -2.44786507       0.00000000
Si       2.71019988      -0.60787764      -2.51232714       0.00000000
Si      -0.68185053       1.57723038       3.38766473       0.00000000
