10
Lattice="16.28999089631971 0.0 0.0 0.0 16.28999089631971 0.0 0.0 0.0 34.56409401068381" Properties=species:S:1:pos:R:3:initial_magmoms:R:1 pbc="T T T"
Si      -1.35220032       1.35453793       1.36210258       0.00000000
Si       1.36290285      -1.36037075       1.35923376       0.00000000
Si      -1.34203536      -1.35881373      -1.38180758       0.00000000
Si       1.35449721       1.36387211      -1.36553134       0.00000000
Si       2.58812262      -0.13880872      -2.69549966       0.00000000
Si      -2.70785412       2.71015915       0.00114062       0.00000000
Si      -2.70939515      -0.00230992       2.71819100       0.00000000
Si      -2.71080587      -2.71907697       0.00228123       0.00000000
Si       0.00511506       2.71222798       2.71826013       0.00000000
Si       0.00532683      -2.71774119       2.71791449       0.00000000
