10
Lattice="16.28999089631971 0.0 0.0 0.0 16.28999089631971 0.0 0.0 0.0 34.56409401068381" Properties=species:S:1:pos:R:3:initial_magmoms:R:1 pbc="T T T"
Si       1.74384450       0.93763611       1.30379292       0.00000000
Si       1.37424069      -1.35621580      -1.39072166       0.00000000
Si      -1.33284780       1.37875302      -1.41235880       0.00000000
Si      -1.40379075      -1.44121051       1.45587502       0.00000000
Si       0.58658661       1.47593916       3.37131449       0.00000000
Si      -2.68794774       2.72733696      -0.06311407       0.00000000
Si       2.78145234       2.67584427      -0.03643058       0.00000000
Si       0.01914075      -2.68854421      -2.77511809       0.00000000
Si      -2.69353521       0.02161683      -2.77321707       0.00000000
Si       2.68369605      -2.79297656       0.14866025       0.00000000
