10
Lattice="16.28999089631971 0.0 0.0 0.0 16.28999089631971 0.0 0.0 0.0 34.56409401068381" Properties=species:S:1:pos:R:3:initial_magmoms:R:1 pbc="T T T"
Si       0.67427568      -1.26019766      -1.81071020       0.00000000
Si      -1.10998431      -1.41149543       1.45179645       0.00000000
Si       2.02489587       0.46584350       1.11922055       0.00000000
Si      -1.75348818       1.17662507      -1.10722681       0.00000000
Si      -2.04791364       0.33470900       2.84877422       0.00000000
Si      -0.41976072       2.04476804      -2.85751894       0.00000000
Si      -1.20839220      -2.58519924      -2.13782497       0.00000000
Si      -2.27893842      -2.86305777      -0.02291601       0.00000000
Si       3.66536403      -0.56834018      -0.33724205       0.00000000
Si       2.61276939      -2.46499533      -1.23424992       0.00000000
