10
Lattice="16.28999089631971 0.0 0.0 0.0 16.28999089631971 0.0 0.0 0.0 34.56409401068381" Properties=species:S:1:pos:R:3:initial_magmoms:R:1 pbc="T T T"
Si       1.55056365      -1.14472436      -1.30610871       0.00000000
Si      -1.69984521      -1.64084120       0.19770673       0.00000000
Si      -0.42940440       2.13509772      -0.96043302       0.00000000
Si       1.86253344       0.54954315       1.51352796       0.00000000
Si       3.31060041       0.07167600      -0.30938338       0.00000000
Si      -3.37185081      -0.30985209      -0.70915191       0.00000000
Si      -1.99778931      -0.80356452       2.85561791       0.00000000
Si       1.97175789      -1.43207671       2.77691543       0.00000000
Si      -2.27170566       2.98908468       0.39244094       0.00000000
Si      -3.53525580       1.11599532       1.24793731       0.00000000
