10
Lattice="16.28999089631971 0.0 0.0 0.0 16.28999089631971 0.0 0.0 0.0 34.56409401068381" Properties=species:S:1:pos:R:3:initial_magmoms:R:1 pbc="T T T"
Si      -0.08645103       2.18727459      -0.70493509       0.00000000
Si       1.56330243      -0.62780031       1.59900501       0.00000000
Si       1.15725789      -0.53830305      -2.06752157       0.00000000
Si      -2.36877777      -0.67606758       0.90101731       0.00000000
Si      -0.68505966       2.55034611       1.55607638       0.00000000
Si      -1.37529954      -2.51809191       1.91682203       0.00000000
Si       2.36599218      -2.59252255       0.56367156       0.00000000
Si       0.22957497      -1.49594328       3.34929715       0.00000000
Si      -0.58658661      -1.47593916      -3.37131449       0.00000000
Si       2.50641198       1.32455619       2.54160295       0.00000000
