10
Lattice="16.28999089631971 0.0 0.0 0.0 16.28999089631971 0.0 0.0 0.0 34.56409401068381" Properties=species:S:1:pos:R:3:initial_magmoms:R:1 pbc="T T T"
Si      -1.35676152       1.35707103       1.35754012       0.00000000
Si      -1.35607734      -1.35754344      -1.35788576       0.00000000
Si       1.35777150      -1.35755973       1.35767837       0.00000000
Si       1.35896067       1.35685926      -1.35760924       0.00000000
Si      -2.71398893       0.00301365      -2.71514936       0.00000000
Si       0.00092853      -2.71479366       2.71463090       0.00000000
Si      -2.71469918      -0.00003258       2.71483828       0.00000000
Si       0.00086337       2.71568961       2.71418156       0.00000000
Si       2.71542897       2.71454931       0.00027651       0.00000000
Si      -2.71447112      -2.71565703       0.00010369       0.00000000
