10
Lattice="16.28999089631971 0.0 0.0 0.0 16.28999089631971 0.0 0.0 0.0 34.56409401068381" Properties=species:S:1:pos:R:3:initial_magmoms:R:1 pbc="T T T"
Si      -0.16421949      -0.44297397       2.33425283       0.00000000
Si      -1.48157550       1.79496252      -0.60262532       0.00000000
Si       2.36649717       0.34764489      -0.45856209       0.00000000
Si       0.63952911      -2.29042287      -1.05341048       0.00000000
Si       0.16935084       3.41557317      -0.24260551       0.00000000
Si       3.01511610      -1.88954226      -0.79124168       0.00000000
Si      -2.08495710      -1.80980271       2.49158867       0.00000000
Si      -2.37247560       1.07329923      -2.69147294       0.00000000
Si       3.15292950       1.56660930       1.43537850       0.00000000
Si      -0.06488307      -2.12346666      -3.25649250       0.00000000
