10
Lattice="16.28999089631971 0.0 0.0 0.0 16.28999089631971 0.0 0.0 0.0 34.56409401068381" Properties=species:S:1:pos:R:3:initial_magmoms:R:1 pbc="T T T"
Si      -2.21500247       0.72760751      -0.06442751       0.00000000
Si       1.60766499       1.69271834       0.10963737       0.00000000
Si       0.19629776      -1.54917804      -1.77860014       0.00000000
Si       0.80255291      -1.13679669       1.94931230       0.00000000
Si       3.27967059       0.36172922       1.01649601       0.00000000
Si      -2.08665356       2.15867749      -1.97751662       0.00000000
Si      -1.15900322      -1.27840566       3.15556529       0.00000000
Si       1.77457233      -3.02602944      -0.90063710       0.00000000
Si      -1.91368634      -2.48772639      -1.87171586       0.00000000
Si      -2.46274079       2.00358040       1.89553054       0.00000000
