10
Lattice="16.28999089631971 0.0 0.0 0.0 16.28999089631971 0.0 0.0 0.0 34.56409401068381" Properties=species:S:1:pos:R:3:initial_magmoms:R:1 pbc="T T T"
Si      -0.90968247      -1.24579404       1.78900394       0.00000000
Si       1.40211288      -1.24843302      -1.54664038       0.00000000
Si      -1.30945536       1.43676075      -1.53938192       0.00000000
Si       0.88238043       2.00672342       1.26127906       0.00000000
Si      -2.45338803      -2.47303377       0.03466781       0.00000000
Si       2.81624778      -2.56183056      -0.17644980       0.00000000
Si      -2.24438733       0.41429610       3.13047174       0.00000000
Si      -2.68369605       2.79297656      -0.14866025       0.00000000
Si       0.05105286      -2.61693963      -2.92395117       0.00000000
Si      -2.66455530       0.10443234      -2.92377835       0.00000000
