10
Lattice="16.28999089631971 0.0 0.0 0.0 16.28999089631971 0.0 0.0 0.0 34.56409401068381" Properties=species:S:1:pos:R:3:initial_magmoms:R:1 pbc="T T T"
Si       1.35736425       1.35786924      -1.35619211       0.00000000
Si       1.35708732      -1.35755973       1.35740186       0.00000000
Si      -1.35736425       1.35782037       1.35743642       0.00000000
Si      -1.35799956      -1.35814617      -1.35719447       0.00000000
Si      -0.00136836      -2.71086940      -2.71832926       0.00000000
Si       2.71435383       2.71502172       0.00041477       0.00000000
Si      -2.71490769       2.71454931       0.00000000       0.00000000
Si       0.00317655       2.71450044      -2.71497654       0.00000000
Si       0.00255753       2.71533123       2.71431982       0.00000000
Si      -2.71415835       0.00237834      -2.71549500       0.00000000
