10
Lattice="16.28999089631971 0.0 0.0 0.0 16.28999089631971 0.0 0.0 0.0 34.56409401068381" Properties=species:S:1:pos:R:3:initial_magmoms:R:1 pbc="T T T"
Si      -0.94310955      -1.95235650      -0.94259793       0.00000000
Si       0.05066190       2.06089677      -1.16411934       0.00000000
Si      -2.09645784       0.67220685       1.03146227       0.00000000
Si       2.15283753      -0.33322824       1.13093779       0.00000000
Si       2.65212603       1.90847124       1.39151664       0.00000000
Si      -3.19147164       1.22578992      -0.98552656       0.00000000
Si       2.42624889       2.46177738      -0.90195054       0.00000000
Si      -2.27683701      -2.82049947       0.80769420       0.00000000
Si      -2.50641198      -1.32455619      -2.54160295       0.00000000
Si      -3.10013361      -1.09791342       2.21296736       0.00000000
