10
Lattice="16.28999089631971 0.0 0.0 0.0 16.28999089631971 0.0 0.0 0.0 34.56409401068381" Properties=species:S:1:pos:R:3:initial_magmoms:R:1 pbc="T T T"
Si      -1.62676827       1.18206756       1.27164829       0.00000000
Si      -0.56014794      -2.29477230      -0.47421963       0.00000000
Si       1.63931157      -0.34326288       1.73408157       0.00000000
Si       0.46278261       1.19309589      -2.04823479       0.00000000
Si       1.26193743      -3.06411642      -1.80175810       0.00000000
Si      -0.57735018       2.30145120       3.02802371       0.00000000
Si      -3.02682861      -0.31786677       2.39684844       0.00000000
Si      -1.57988565       2.12981976      -2.87991649       0.00000000
Si       1.83537801       3.07380897      -1.64172625       0.00000000
Si       1.53798777      -2.56256361       2.64529529       0.00000000
