10
Lattice="16.28999089631971 0.0 0.0 0.0 16.28999089631971 0.0 0.0 0.0 34.56409401068381" Properties=species:S:1:pos:R:3:initial_magmoms:R:1 pbc="T T T"
Si       1.37259540       1.88071308       0.40650854       0.00000000
Si      -2.04266826       0.93672387      -0.83168169       0.00000000
Si       1.36254447      -1.06315056      -1.66370903       0.00000000
Si      -0.46278261      -1.19309589       2.04823479       0.00000000
Si       1.27448073       2.94630714      -1.73055603       0.00000000
Si       3.55695408      -0.41058945      -1.08078526       0.00000000
Si      -2.58243741       2.83685463       0.41957377       0.00000000
Si       3.65303250       1.22404689       0.63528840       0.00000000
Si       0.86325597      -3.30485004      -1.92428788       0.00000000
Si      -2.08955088      -0.01102833       3.31988309       0.00000000
