10
Lattice="16.28999089631971 0.0 0.0 0.0 16.28999089631971 0.0 0.0 0.0 34.56409401068381" Properties=species:S:1:pos:R:3:initial_magmoms:R:1 pbc="T T T"
Si       1.35651717       1.35647696       1.35798945       0.00000000
Si      -1.35713619       1.35724585      -1.35688340       0.00000000
Si       1.35762489      -1.35792641      -1.35715991       0.00000000
Si      -1.35878148      -1.35898526       1.35774750       0.00000000
Si      -0.00053757       2.71428756      -2.71338659       0.00000000
Si       0.00158013       2.71391289       2.71525305       0.00000000
Si       2.71486064       2.71433643       0.00024195       0.00000000
Si       0.00076563      -2.71545356      -2.71397418       0.00000000
Si       2.71518462      -0.00029297      -2.71459633       0.00000000
Si      -2.71541268       2.71487400       0.00010369       0.00000000
