10
Lattice="16.28999089631971 0.0 0.0 0.0 16.28999089631971 0.0 0.0 0.0 34.56409401068381" Properties=species:S:1:pos:R:3:initial_magmoms:R:1 pbc="T T T"
Si      -1.35032697      -1.35830907      -1.37126207       0.00000000
Si       1.37052657       1.35567009      -1.37008689       0.00000000
Si       1.32103755      -1.46329812       1.31219200       0.00000000
Si      -1.34324082       1.41729516       1.38425817       0.00000000
Si      -2.59582779      -0.02634093       2.76976066       0.00000000
Si      -2.68977222      -2.70801702      -0.02668350       0.00000000
Si       2.71373481       2.71223613      -0.02167170       0.00000000
Si      -2.70192456      -0.00089595      -2.72697029       0.00000000
Si       0.00959481       2.71303434      -2.72610618       0.00000000
Si      -2.71119357       2.72833065       0.00922862       0.00000000
