10
Lattice="16.28999089631971 0.0 0.0 0.0 16.28999089631971 0.0 0.0 0.0 34.56409401068381" Properties=species:S:1:pos:R:3:initial_magmoms:R:1 pbc="T T T"
Si       1.38196282      -1.33320618      -1.30251405       0.00000000
Si      -1.34553771       1.38603465      -1.30776779       0.00000000
Si       1.36725458       1.44744795       1.24752254       0.00000000
Si      -1.27580022      -1.53826470       1.36794391       0.00000000
Si       2.43951614      -0.08467542       2.57004921       0.00000000
Si      -0.19965024       2.27954115       2.75368834       0.00000000
Si       0.02270238      -2.68607439      -2.65794575       0.00000000
Si      -2.68874595       0.02946861      -2.65618298       0.00000000
Si       2.73925214       0.02774187      -2.65393631       0.00000000
Si       0.02493181       2.74325229      -2.65206985       0.00000000
