10
Lattice="16.28999089631971 0.0 0.0 0.0 16.28999089631971 0.0 0.0 0.0 34.56409401068381" Properties=species:S:1:pos:R:3:initial_magmoms:R:1 pbc="T T T"
Si       0.88956173       1.96651251       0.84177442       0.00000000
Si       1.68476786      -0.94903911      -1.35387632       0.00000000
Si      -1.03759155       1.59076737      -1.44415778       0.00000000
Si      -0.16793361      -2.13389226       1.22087361       0.00000000
Si       2.38678541      -2.60069850       0.16362651       0.00000000
Si       0.25409142      -2.29148172      -2.77069389       0.00000000
Si      -3.16477233      -1.42198668      -1.30686912       0.00000000
Si      -2.50002630       0.33953247      -2.78600579       0.00000000
Si       1.71827802       1.66762359       2.93176266       0.00000000
Si       0.43828964      -1.51368309       3.46128487       0.00000000
