10
Lattice="16.28999089631971 0.0 0.0 0.0 16.28999089631971 0.0 0.0 0.0 34.56409401068381" Properties=species:S:1:pos:R:3:initial_magmoms:R:1 pbc="T T T"
Si       1.95607062      -0.91769715       0.85089934       0.00000000
Si      -1.46484567      -1.76756274      -0.44684486       0.00000000
Si      -0.86475465       1.26508140       1.80670077       0.00000000
Si       0.71912205       0.58285620      -2.25848829       0.00000000
Si       0.06586047      -2.91185379      -1.83452488       0.00000000
Si      -0.13331736       3.31361406       0.99534277       0.00000000
Si       2.04887475      -2.83879314      -0.51241298       0.00000000
Si      -1.65657897      -2.59630020       1.78665358       0.00000000
Si       3.36407952       0.97713936       0.79725584       0.00000000
Si      -0.81489096       2.20744161      -2.94807692       0.00000000
