10
Lattice="16.28999089631971 0.0 0.0 0.0 16.28999089631971 0.0 0.0 0.0 34.56409401068381" Properties=species:S:1:pos:R:3:initial_magmoms:R:1 pbc="T T T"
Si      -1.71145998      -0.73917504      -1.44225676       0.00000000
Si      -0.32645160       0.38389014       2.32761652       0.00000000
Si       0.90477918       1.83153357      -1.28181014       0.00000000
Si       1.75578248      -1.61052714      -0.38162238       0.00000000
Si      -0.17137080      -1.98627228      -2.66755457       0.00000000
Si       2.58449877      -1.90941606       1.70836587       0.00000000
Si       1.38221857      -0.86884344       3.42786138       0.00000000
Si       2.47168400       0.99944037      -2.78797595       0.00000000
Si       0.01881495       2.63995740       2.81573093       0.00000000
Si       3.54394556      -0.53268300      -1.46544928       0.00000000
