10
Lattice="16.28999089631971 0.0 0.0 0.0 16.28999089631971 0.0 0.0 0.0 34.56409401068381" Properties=species:S:1:pos:R:3:initial_magmoms:R:1 pbc="T T T"
Si       1.35738864       1.35640314      -1.35771294       0.00000000
Si      -1.35788553       1.35666378       1.35850791       0.00000000
Si      -1.35798327      -1.35837423      -1.35781663       0.00000000
Si       1.35843121      -1.36000323       1.35985591       0.00000000
Si      -0.01203831      -2.71722087       2.70415797       0.00000000
Si      -0.00013032       2.71394658      -2.71532218       0.00000000
Si      -2.71653669       2.71288773      -0.00041477       0.00000000
Si       2.71407105      -0.00055386      -2.71559869       0.00000000
Si       2.71460211      -2.71565703      -0.00041477       0.00000000
Si      -0.00112401      -2.71513575      -2.71542587       0.00000000
