10
Lattice="16.28999089631971 0.0 0.0 0.0 16.28999089631971 0.0 0.0 0.0 34.56409401068381" Properties=species:S:1:pos:R:3:initial_magmoms:R:1 pbc="T T T"
Si       1.19135286       1.46471542      -1.43835101       0.00000000
Si      -1.50931737      -1.21451724      -1.43727952       0.00000000
Si      -0.35899902       1.67491566       1.74334475       0.00000000
Si       0.56208645      -1.97317512       1.35747099       0.00000000
Si      -1.40012550      -0.08881308       2.95578472       0.00000000
Si       2.34830124      -2.86303266       0.08679049       0.00000000
Si      -2.66465304      -2.63218707       0.11578978       0.00000000
Si       2.52156168       0.08537589      -2.80847246       0.00000000
Si       0.91970082      -1.09050147       3.51914520       0.00000000
Si      -0.20522142      -2.61627174      -2.82997134       0.00000000
