10
Lattice="16.28999089631971 0.0 0.0 0.0 16.28999089631971 0.0 0.0 0.0 34.56409401068381" Properties=species:S:1:pos:R:3:initial_magmoms:R:1 pbc="T T T"
Si       0.19411164       1.31989725      -1.90430982       0.00000000
Si      -2.07778950      -1.02087801       0.40464207       0.00000000
Si       0.01519857       1.75870098       1.60014563       0.00000000
Si       2.03577759      -1.22794020      -0.10348496       0.00000000
Si       2.19467025      -1.32414894       2.26298163       0.00000000
Si       1.73115459       0.87843825       2.94195907       0.00000000
Si      -3.51705987       0.86639994       0.57096459       0.00000000
Si       1.82381211       3.01430160      -1.20881074       0.00000000
Si      -1.97967483      -2.08647207       2.54170664       0.00000000
Si      -2.55243123       2.88906408      -0.23935648       0.00000000
