10
Lattice="16.28999089631971 0.0 0.0 0.0 16.28999089631971 0.0 0.0 0.0 34.56409401068381" Properties=species:S:1:pos:R:3:initial_magmoms:R:1 pbc="T T T"
Si       1.96155613       0.14160897      -1.20625299       0.00000000
Si      -1.33322247      -1.93908015      -0.41483849       0.00000000
Si       0.72462807       1.23756174       1.96206646       0.00000000
Si      -1.15069302       2.03866322       0.77520393       0.00000000
Si      -1.43778798      -2.06687520       2.11407943       0.00000000
Si      -0.47535849      -0.28013913       3.44046487       0.00000000
Si       2.02103581      -2.17113120      -1.92363116       0.00000000
Si       1.15900322       1.27840566      -3.15556529       0.00000000
Si      -1.30373757       3.28198607      -1.26003475       0.00000000
Si      -3.22414938      -1.19920464      -1.79522548       0.00000000
