10
Lattice="16.28999089631971 0.0 0.0 0.0 16.28999089631971 0.0 0.0 0.0 34.56409401068381" Properties=species:S:1:pos:R:3:initial_magmoms:R:1 pbc="T T T"
Si      -1.40800890      -1.89483651       0.05364350       0.00000000
Si       1.35108446      -0.13761792       1.95021097       0.00000000
Si       1.31356859      -0.11386710      -2.03796925       0.00000000
Si      -1.13213643       2.13672672       0.34284144       0.00000000
Si      -3.36407952      -0.97713936      -0.79725584       0.00000000
Si      -0.26264204       3.33837486      -1.50091206       0.00000000
Si       0.73227623       1.92583638      -3.09894927       0.00000000
Si       3.46049284       0.46364598      -1.35964853       0.00000000
Si       2.52890032      -2.20548681       1.75001562       0.00000000
Si      -1.22642891      -2.91866301       2.14380456       0.00000000
