10
Lattice="16.28999089631971 0.0 0.0 0.0 16.28999089631971 0.0 0.0 0.0 34.56409401068381" Properties=species:S:1:pos:R:3:initial_magmoms:R:1 pbc="T T T"
Si      -0.58951881      -1.23997851      -1.90897598       0.00000000
Si      -2.00534787      -0.50235102       1.22412264       0.00000000
Si       0.50236731       2.26825218      -0.69384001       0.00000000
Si       1.85303637      -1.21740057       0.98417856       0.00000000
Si      -0.46908684       0.56089728      -3.53535577       0.00000000
Si       0.72286875      -1.96454142       2.96342338       0.00000000
Si      -1.42405551      -2.54205450       2.28510266       0.00000000
Si       1.33538904      -2.53312758      -2.38222782       0.00000000
Si       1.48814037       3.32765604       1.14552384       0.00000000
Si       3.77377398       0.14942817       0.82684272       0.00000000
