10
Lattice="16.28999089631971 0.0 0.0 0.0 16.28999089631971 0.0 0.0 0.0 34.56409401068381" Properties=species:S:1:pos:R:3:initial_magmoms:R:1 pbc="T T T"
Si       1.89670009       1.32771645      -0.46219132       0.00000000
Si      -1.70131198       1.68834447       0.21018437       0.00000000
Si      -0.38548591      -1.12982553      -2.10094506       0.00000000
Si       0.72481052      -1.49270157       2.95322697       0.00000000
Si      -1.43306455       1.88136468       2.58643260       0.00000000
Si      -1.32211336      -0.35147304       3.34328299       0.00000000
Si       3.51677317       0.20069280       0.83067934       0.00000000
Si      -2.75074636      -0.93007755      -2.24569957       0.00000000
Si      -3.57692629       0.81650367      -0.87920735       0.00000000
Si       2.32318858       1.00348029      -2.80342610       0.00000000
