10
Lattice="16.28999089631971 0.0 0.0 0.0 16.28999089631971 0.0 0.0 0.0 34.56409401068381" Properties=species:S:1:pos:R:3:initial_magmoms:R:1 pbc="T T T"
Si      -1.35605142       1.35544830       1.35719447       0.00000000
Si       1.35635101       1.35582975      -1.35719447       0.00000000
Si      -1.35822997      -1.35959598      -1.35677970       0.00000000
Si       1.35711664      -1.36138788       1.35881899       0.00000000
Si       0.00738914       2.68885902       2.73073777       0.00000000
Si       2.71415509       2.71190448      -0.00072585       0.00000000
Si      -0.00089269       2.71341131      -2.71428526       0.00000000
Si       2.71382929      -0.00201996      -2.71456177       0.00000000
Si      -2.71685664       2.71235083       0.00076041       0.00000000
Si      -2.71574892      -0.00205254      -2.71438895       0.00000000
