10
Lattice="16.28999089631971 0.0 0.0 0.0 16.28999089631971 0.0 0.0 0.0 34.529650657227435" Properties=species:S:1:pos:R:3:initial_magmoms:R:1 pbc="T T T"
Si      -1.36075257      -1.34096249       1.37624215       0.00000000
Si      -1.35839052       1.33745627      -1.39182539       0.00000000
Si       1.35511623       1.37102996       1.37323807       0.00000000
Si       1.41843546      -1.29393326      -1.48278345       0.00000000
Si       0.45618516       2.14616355      -2.73781061       0.00000000
Si       2.44609011       0.50562697      -2.78387319       0.00000000
Si      -2.71559906      -2.69925527       0.00982024       0.00000000
Si       2.72549619      -2.70627626      -0.01915361       0.00000000
Si      -0.00382815      -2.70326261       2.73401783       0.00000000
Si      -2.70492311       2.73960825      -0.00182317       0.00000000
