10
Lattice="16.28999089631971 0.0 0.0 0.0 16.28999089631971 0.0 0.0 0.0 34.529650657227435" Properties=species:S:1:pos:R:3:initial_magmoms:R:1 pbc="T T T"
Si      -1.33998023      -1.34797870      -1.37624906       0.00000000
Si      -1.55176652       1.22508945       1.30456546       0.00000000
Si       1.36846751       1.37363796      -1.36834176       0.00000000
Si       1.30741259      -1.37889053       1.44434156       0.00000000
Si      -0.46105098       1.46657241       3.37627660       0.00000000
Si      -2.69314166      -2.69409626       0.00000000       0.00000000
Si      -2.69998346       0.00989943      -2.73236731       0.00000000
Si       0.01330078      -2.70434267      -2.73409380       0.00000000
Si       2.73686009      -2.70175256       0.01329392       0.00000000
Si      -2.70939908       2.74012461      -0.00752747       0.00000000
