10
Lattice="16.28999089631971 0.0 0.0 0.0 16.28999089631971 0.0 0.0 0.0 34.529650657227435" Properties=species:S:1:pos:R:3:initial_magmoms:R:1 pbc="T T T"
Si       1.33667595      -1.65822167       1.04756113       0.00000000
Si      -1.36150191      -1.36565327      -1.39662156       0.00000000
Si       1.43083215       1.33117970      -1.43343019       0.00000000
Si      -1.65081231       1.64059196       2.61334354       0.00000000
Si      -3.12996549       1.47980966       0.53531347       0.00000000
Si      -0.05729193       3.17457239       1.82099120       0.00000000
Si       3.25516554       2.13308753      -0.09426600       0.00000000
Si      -2.66891450       0.01323725      -2.84096313       0.00000000
Si       0.06794559      -2.68851530      -2.82766920       0.00000000
Si      -2.31837651      -3.14321807      -0.02030345       0.00000000
