10
Lattice="16.28999089631971 0.0 0.0 0.0 16.28999089631971 0.0 0.0 0.0 34.529650657227435" Properties=species:S:1:pos:R:3:initial_magmoms:R:1 pbc="T T T"
Si      -1.30021893       1.37720756      -1.35926046       0.00000000
Si       1.44024777      -1.34282075      -1.31792844       0.00000000
Si      -0.98552871      -1.55675732       1.54817228       0.00000000
Si       0.95135229       1.77756851       1.37176020       0.00000000
Si      -2.61956232       2.68027886       0.08694571       0.00000000
Si      -2.71371852      -0.30912251       2.56793702       0.00000000
Si      -2.63261061       0.01656346      -2.69842465       0.00000000
Si       2.70795186       2.64088964       0.00234802       0.00000000
Si       0.08345367      -2.69968001      -2.69182948       0.00000000
Si      -2.64531681      -2.75785160       0.19395316       0.00000000
