10
Lattice="16.28999089631971 0.0 0.0 0.0 16.28999089631971 0.0 0.0 0.0 34.529650657227435" Properties=species:S:1:pos:R:3:initial_magmoms:R:1 pbc="T T T"
Si       0.56200500      -2.03489141      -0.93029837       0.00000000
Si       1.57167549       0.69918309       1.61864734       0.00000000
Si       0.20030184       1.74996954      -1.57697003       0.00000000
Si      -1.40123322      -0.12274515       1.90196328       0.00000000
Si      -0.28070928       1.85947092       2.82010720       0.00000000
Si      -0.02502144      -1.65940691      -3.13266978       0.00000000
Si       2.94818049      -1.67436113      -1.21226765       0.00000000
Si      -0.35150562      -2.07020976       3.09786387       0.00000000
Si       0.58600017       3.76222437      -0.44370626       0.00000000
Si       1.83775635      -1.02624557       3.30017321       0.00000000
