10
Lattice="16.28999089631971 0.0 0.0 0.0 16.28999089631971 0.0 0.0 0.0 34.529650657227435" Properties=species:S:1:pos:R:3:initial_magmoms:R:1 pbc="T T T"
Si       1.59352038       1.53398043      -0.79235234       0.00000000
Si       0.61224336      -1.39533298       1.87944994       0.00000000
Si      -1.81108799       1.58799807       0.65150581       0.00000000
Si      -1.47915318      -0.16078230      -2.07803007       0.00000000
Si      -1.69403457       2.26567836      -1.63408210       0.00000000
Si       1.65081231      -1.64059196      -2.61334354       0.00000000
Si      -3.38449904      -1.09740843      -0.74901760       0.00000000
Si       2.30068557      -0.14781546       2.95007688       0.00000000
Si       1.85559390      -3.26286161       1.11361639       0.00000000
Si       3.89381499       1.02141558      -0.57129339       0.00000000
