10
Lattice="16.28999089631971 0.0 0.0 0.0 16.28999089631971 0.0 0.0 0.0 34.529650657227435" Properties=species:S:1:pos:R:3:initial_magmoms:R:1 pbc="T T T"
Si       0.58702644      -0.37548450       2.20237141       0.00000000
Si       0.02981070      -2.15050547      -0.85333173       0.00000000
Si      -1.91080071       1.21566731      -0.51725446       0.00000000
Si       1.57806117       1.39814789      -1.03723676       0.00000000
Si       2.97320193      -0.01495422       1.92040212       0.00000000
Si       0.02502144       1.65940691       3.13266978       0.00000000
Si      -0.04302189      -1.75703681      -3.12631632       0.00000000
Si       3.12188076      -0.19884063      -1.79851239       0.00000000
Si       0.29750427       2.29437482      -2.78985921       0.00000000
Si      -1.28172978       3.51635288      -0.25334419       0.00000000
