10
Lattice="16.28999089631971 0.0 0.0 0.0 16.28999089631971 0.0 0.0 0.0 34.529650657227435" Properties=species:S:1:pos:R:3:initial_magmoms:R:1 pbc="T T T"
Si       1.65952746       0.99857048       1.38025592       0.00000000
Si       1.36273995      -0.30298585      -1.95265284       0.00000000
Si      -1.02765465      -1.79956023       1.30108974       0.00000000
Si      -1.98990495       1.64053658       0.04606258       0.00000000
Si       0.31301235       1.64447876      -3.14855343       0.00000000
Si       0.27060948       2.23453514       2.79435294       0.00000000
Si       2.70037701       2.43869771      -0.16149527       0.00000000
Si      -2.44609011      -0.50562697       2.78387319       0.00000000
Si      -1.12254390       3.51343046       1.31590297       0.00000000
Si       1.12534578      -2.44050657      -2.86893216       0.00000000
