10
Lattice="16.28999089631971 0.0 0.0 0.0 16.28999089631971 0.0 0.0 0.0 34.529650657227435" Properties=species:S:1:pos:R:3:initial_magmoms:R:1 pbc="T T T"
Si      -1.36927224       1.21863861      -1.46493161       0.00000000
Si       1.34162811       1.36523232       1.36714013       0.00000000
Si      -1.37626065      -1.35040842       1.35785165       0.00000000
Si       1.25483499      -1.44577008      -1.45096781       0.00000000
Si      -2.18558043      -0.70755615      -2.65225157       0.00000000
Si      -0.41102928      -2.31764346      -2.94245415       0.00000000
Si       2.68776855       2.68926723      -0.01124631       0.00000000
Si       2.69439858       0.00601101       2.72239514       0.00000000
Si       2.70184311      -2.72438847      -0.02723700       0.00000000
Si      -0.01669725      -2.71006956       2.72170455       0.00000000
