10
Lattice="16.28999089631971 0.0 0.0 0.0 16.28999089631971 0.0 0.0 0.0 34.529650657227435" Properties=species:S:1:pos:R:3:initial_magmoms:R:1 pbc="T T T"
Si       0.51789168      -2.26378872      -0.63513875       0.00000000
Si       2.00601576       1.31106807       0.24968404       0.00000000
Si      -0.64549125       0.39503250      -2.30696178       0.00000000
Si      -1.81325619       0.43381899       1.61488360       0.00000000
Si       0.85913460      -3.09223296       1.50141911       0.00000000
Si       1.76236623       2.72482830      -1.59558152       0.00000000
Si      -1.56579480      -2.93681007      -1.46585355       0.00000000
Si       1.45168335       0.91085535      -3.23967722       0.00000000
Si      -3.85550091      -0.34396335       0.62629915       0.00000000
Si       1.77676659       2.91924945       1.98663003       0.00000000
