10
Lattice="16.28999089631971 0.0 0.0 0.0 16.28999089631971 0.0 0.0 0.0 34.529650657227435" Properties=species:S:1:pos:R:3:initial_magmoms:R:1 pbc="T T T"
Si      -0.51697944       2.26597158       0.32537308       0.00000000
Si      -2.04224472      -0.77778234      -0.98858445       0.00000000
Si       0.67676805      -0.80638758       2.15762096       0.00000000
Si       1.81325619      -0.43381899      -1.61488360       0.00000000
Si       1.00506042      -2.99713194       1.43488043       0.00000000
Si      -1.48344885      -3.06603864      -1.39410089       0.00000000
Si       1.46450358       3.48505002       0.17154340       0.00000000
Si      -1.62875565       2.39482548       2.44359568       0.00000000
Si      -1.87126488       2.97634590      -1.51422962       0.00000000
Si      -3.74406102      -0.76918122       0.67681606       0.00000000
