10
Lattice="16.28999089631971 0.0 0.0 0.0 16.28999089631971 0.0 0.0 0.0 34.529650657227435" Properties=species:S:1:pos:R:3:initial_magmoms:R:1 pbc="T T T"
Si      -1.98387765       1.14051177       0.31891603       0.00000000
Si       1.50705306      -0.10697643       1.80904394       0.00000000
Si      -0.62907093      -2.30068557      -0.26391027       0.00000000
Si       1.25094168       0.96876630      -1.81377450       0.00000000
Si       1.57923405      -1.22197806      -2.53651503       0.00000000
Si      -3.35828124      -0.68119893       0.14333266       0.00000000
Si       3.50191017      -0.25286967       0.52706088       0.00000000
Si       2.85979095      -2.11820499      -0.78389257       0.00000000
Si      -0.71646678      -2.04178860      -2.95328814       0.00000000
Si       3.08845368       1.90333989      -0.54943611       0.00000000
