10
Lattice="16.28999089631971 0.0 0.0 0.0 16.28999089631971 0.0 0.0 0.0 34.529650657227435" Properties=species:S:1:pos:R:3:initial_magmoms:R:1 pbc="T T T"
Si       0.26922483       1.44326142      -1.81415433       0.00000000
Si      -0.38569833      -2.01225483      -1.13326377       0.00000000
Si      -1.47494547      -0.00089595       1.84464403       0.00000000
Si       2.08746576       0.16330725       1.10546738       0.00000000
Si       1.60915878      -2.15814807      -2.41524682       0.00000000
Si      -1.94098608       2.19711375      -2.23987063       0.00000000
Si       1.19570229      -0.00193851      -3.49174381       0.00000000
Si       2.88767943      -2.03392053       1.21219859       0.00000000
Si       0.98567532      -3.06304128       2.06235360       0.00000000
Si      -0.58600017      -3.76222437       0.44370626       0.00000000
