10
Lattice="16.28999089631971 0.0 0.0 0.0 16.28999089631971 0.0 0.0 0.0 34.529650657227435" Properties=species:S:1:pos:R:3:initial_magmoms:R:1 pbc="T T T"
Si      -0.60823602       1.90185750      -1.41916944       0.00000000
Si      -1.12052394      -1.98221607      -0.91814392       0.00000000
Si       1.85238477      -1.16028783      -1.20145987       0.00000000
Si       1.26684072      -1.18799712       2.06891423       0.00000000
Si      -1.55903445       1.70228871       2.08434900       0.00000000
Si       0.28070928      -1.85947092      -2.82010720       0.00000000
Si      -0.36546615       3.54597462       0.31401282       0.00000000
Si       2.11846563      -2.88571648       0.48006600       0.00000000
Si       0.86670945       1.90275345      -3.26381346       0.00000000
Si      -0.07079634      -3.92968068       0.27775667       0.00000000
