10
Lattice="16.28999089631971 0.0 0.0 0.0 16.28999089631971 0.0 0.0 0.0 34.529650657227435" Properties=species:S:1:pos:R:3:initial_magmoms:R:1 pbc="T T T"
Si       1.36927224      -1.21863861       1.46493161       0.00000000
Si       1.10778516       1.49514507      -1.50093366       0.00000000
Si      -0.81630819      -1.92619476      -1.18731997       0.00000000
Si      -1.36249560       1.49063274       1.44149287       0.00000000
Si       2.62410723      -2.66440869       0.01396380       0.00000000
Si       2.66281227       2.68405443      -0.04502324       0.00000000
Si      -0.00698841      -2.56904703       2.82278325       0.00000000
Si      -2.77195201      -2.65295682       0.02911196       0.00000000
Si      -2.31764346      -1.28593260      -2.81506384       0.00000000
Si       2.71090035       0.14659371       2.83207174       0.00000000
