10
Lattice="16.28999089631971 0.0 0.0 0.0 16.28999089631971 0.0 0.0 0.0 34.529650657227435" Properties=species:S:1:pos:R:3:initial_magmoms:R:1 pbc="T T T"
Si       1.35179307      -1.36014984      -1.36019276       0.00000000
Si      -1.36317978      -1.35211887       1.36188471       0.00000000
Si      -1.36335897       1.35615879      -1.36122865       0.00000000
Si       1.35267273       1.34345259       1.39513678       0.00000000
Si       2.71031391       2.71383255       0.00086324       0.00000000
Si       2.71422351      -2.71132389      -0.00096683       0.00000000
Si       2.71099809      -0.00081450      -2.71817562       0.00000000
Si      -2.71694394       2.71560816       0.00124307       0.00000000
Si      -0.00488700       2.71513575      -2.71814109       0.00000000
Si      -0.00459378      -2.71562445      -2.71848639       0.00000000
