10
Lattice="16.28999089631971 0.0 0.0 0.0 16.28999089631971 0.0 0.0 0.0 34.529650657227435" Properties=species:S:1:pos:R:3:initial_magmoms:R:1 pbc="T T T"
Si       0.92242125       1.70051310       1.26029842       0.00000000
Si       0.18129141      -2.00440305       1.31084986       0.00000000
Si      -2.28610602       0.73111149      -0.17551431       0.00000000
Si       2.73654081       0.30623571       1.81097760       0.00000000
Si      -0.46610577       1.31699763       3.13436173       0.00000000
Si      -2.23239789       1.16730882      -2.60063662       0.00000000
Si       0.38296161      -3.74047722      -0.23214297       0.00000000
Si       2.27444238      -1.90014705       2.35361136       0.00000000
Si       1.37368683      -2.70091458      -2.49887768       0.00000000
Si      -2.22475788      -0.37152603       3.38642832       0.00000000
