10
Lattice="16.28999089631971 0.0 0.0 0.0 16.28999089631971 0.0 0.0 0.0 34.529650657227435" Properties=species:S:1:pos:R:3:initial_magmoms:R:1 pbc="T T T"
Si       0.20167020      -1.73607417      -1.54299283       0.00000000
Si       2.09315097       0.10425600       1.04276150       0.00000000
Si      -0.18129141       2.00440305      -1.31084986       0.00000000
Si      -1.54513908      -0.55066716       1.75503953       0.00000000
Si       2.55524940       2.31063876       0.50012774       0.00000000
Si      -2.40604929       1.63287702       2.07557846       0.00000000
Si      -2.03069511      -2.63322963      -1.31040097       0.00000000
Si       0.74112984       3.70491615      -0.05055144       0.00000000
Si      -0.19085364      -1.26104148       3.59464223       0.00000000
Si      -0.64739718       3.32140068       1.82351187       0.00000000
