10
Lattice="16.28999089631971 0.0 0.0 0.0 16.28999089631971 0.0 0.0 0.0 34.529650657227435" Properties=species:S:1:pos:R:3:initial_magmoms:R:1 pbc="T T T"
Si      -0.32143428       1.74566898      -1.54437402       0.00000000
Si       2.03462100       0.40523004       1.15926461       0.00000000
Si      -1.79835084       0.26109612       1.57655567       0.00000000
Si       0.34044471      -1.87484868      -1.50242047       0.00000000
Si       3.23159391       1.07567757      -0.71963285       0.00000000
Si       1.82415420       1.75951548      -2.54614880       0.00000000
Si       1.49809356       2.33122932       2.52539647       0.00000000
Si      -1.64103831      -3.09392712      -1.34859079       0.00000000
Si      -0.38669202       3.48807996       1.69744405       0.00000000
Si      -0.45952461       3.88154862      -0.57554054       0.00000000
