10
Lattice="16.28999089631971 0.0 0.0 0.0 16.28999089631971 0.0 0.0 0.0 34.529650657227435" Properties=species:S:1:pos:R:3:initial_magmoms:R:1 pbc="T T T"
Si       1.35716877      -1.35791811       1.36316231       0.00000000
Si      -1.36039419       1.35738054       1.36302419       0.00000000
Si      -1.35671265      -1.36782243      -1.38191192       0.00000000
Si       1.36893015       1.35436689      -1.39014725       0.00000000
Si       2.71668330      -2.71186146       0.00866695       0.00000000
Si      -2.71664257      -2.71204065       0.00410903       0.00000000
Si       2.71396287       2.71511946       0.00034530       0.00000000
Si      -0.00073305      -2.71360449       2.72031646       0.00000000
Si       2.71461447       0.00060273       2.72017834       0.00000000
Si      -2.71580853       0.00125433       2.72042005       0.00000000
