10
Lattice="16.28999089631971 0.0 0.0 0.0 16.28999089631971 0.0 0.0 0.0 34.529650657227435" Properties=species:S:1:pos:R:3:initial_magmoms:R:1 pbc="T T T"
Si       0.85377519       0.57633857      -2.17809705       0.00000000
Si       1.07140959       1.21335250       1.79419618       0.00000000
Si       0.23105736      -2.42880546      -0.08193891       0.00000000
Si      -2.36687903       0.60067746       0.46635772       0.00000000
Si      -0.32457825       0.53061091       3.56080315       0.00000000
Si      -1.58863175      -3.20767923      -1.47507297       0.00000000
Si      -0.24684237      -0.68928789      -3.83003099       0.00000000
Si      -2.46670415       1.50391724       2.68727156       0.00000000
Si      -0.40272138      -3.34927191       2.04646995       0.00000000
Si       0.15980490       2.62662403      -2.95100918       0.00000000
