10
Lattice="16.28999089631971 0.0 0.0 0.0 16.28999089631971 0.0 0.0 0.0 34.529650657227435" Properties=species:S:1:pos:R:3:initial_magmoms:R:1 pbc="T T T"
Si      -0.13809033       2.13587964       0.96883348       0.00000000
Si       0.32143428      -1.74566898       1.54437402       0.00000000
Si       2.14558848       0.01384650      -1.00177478       0.00000000
Si      -1.77614757      -0.25715394      -1.57534713       0.00000000
Si       1.42649901      -1.26791586      -2.89873126       0.00000000
Si      -0.38762055       0.12636153      -3.44941044       0.00000000
Si      -2.75797845       1.86000849      -1.35711962       0.00000000
Si       0.66187899      -3.62051766       0.04195355       0.00000000
Si      -0.06525774       1.74241098       3.24181806       0.00000000
Si       3.55302819      -0.66999141       0.82474117       0.00000000
