10
Lattice="16.28999089631971 0.0 0.0 0.0 16.28999089631971 0.0 0.0 0.0 34.529650657227435" Properties=species:S:1:pos:R:3:initial_magmoms:R:1 pbc="T T T"
Si       2.15213706      -0.85869477       0.30596741       0.00000000
Si      -0.46775106      -1.13456592      -2.01998569       0.00000000
Si       0.19696239       2.37290633       0.22565139       0.00000000
Si      -1.36914192      -1.19791773       1.56277833       0.00000000
Si      -2.74954023      -1.36032903      -1.78183456       0.00000000
Si       0.28435824       2.11400936       2.91502927       0.00000000
Si       2.22496965      -1.25216343       2.57895199       0.00000000
Si      -2.85149934       0.41758407       2.44325039       0.00000000
Si       0.17029566      -2.26043298       3.04679449       0.00000000
Si       0.00415395       3.12381017      -2.18655682       0.00000000
