10
Lattice="16.28999089631971 0.0 0.0 0.0 16.28999089631971 0.0 0.0 0.0 34.529650657227435" Properties=species:S:1:pos:R:3:initial_magmoms:R:1 pbc="T T T"
Si       0.48290076       0.01598049      -2.35509614       0.00000000
Si      -2.06099451       0.95447997       0.78945184       0.00000000
Si       2.07083367       0.73410885       1.01544853       0.00000000
Si      -0.47250774      -2.35929699       0.28890975       0.00000000
Si       1.39592268      -3.24138420      -0.81969984       0.00000000
Si       1.12591593      -2.20273380      -2.94382701       0.00000000
Si       1.94388570       0.62643195       3.34464742       0.00000000
Si      -3.88068362       0.17560620      -0.60368222       0.00000000
Si       2.53757475       1.02425004      -2.82293864       0.00000000
Si      -1.93668552      -3.10896279      -1.45742831       0.00000000
