10
Lattice="16.28999089631971 0.0 0.0 0.0 16.28999089631971 0.0 0.0 0.0 34.529650657227435" Properties=species:S:1:pos:R:3:initial_magmoms:R:1 pbc="T T T"
Si      -1.81457568      -0.80870728       1.34598522       0.00000000
Si       0.86736105       1.87289388       1.26984039       0.00000000
Si      -1.44526509      -0.79357875      -1.82744825       0.00000000
Si       1.98990495      -1.64053658      -0.04606258       0.00000000
Si      -0.45618516      -2.14616355       2.73781061       0.00000000
Si      -0.04927725      -0.11083716      -3.59405523       0.00000000
Si       2.26051443       0.59399856       2.74829036       0.00000000
Si       0.96225030      -3.44009681       1.25502716       0.00000000
Si      -1.93246478      -3.11406875      -1.38363840       0.00000000
Si       2.30291730       0.00394218      -3.19461600       0.00000000
