10
Lattice="16.28999089631971 0.0 0.0 0.0 16.28999089631971 0.0 0.0 0.0 34.529650657227435" Properties=species:S:1:pos:R:3:initial_magmoms:R:1 pbc="T T T"
Si      -0.80316216       0.83136015       2.04522688       0.00000000
Si      -0.27961785      -2.37266198       0.18922259       0.00000000
Si       2.34973476       0.50233473       0.29578115       0.00000000
Si      -1.46087091       0.76434309      -1.78280139       0.00000000
Si      -3.12414507       0.31832289       1.68055904       0.00000000
Si       0.05424570      -0.83278715       3.46539768       0.00000000
Si       0.59254875       2.76618861       2.17426426       0.00000000
Si       2.74421340       1.53194418      -1.77896860       0.00000000
Si      -3.46538799       1.14676713      -0.45599882       0.00000000
Si       0.68711220      -2.79002807       2.31051834       0.00000000
