10
Lattice="16.28999089631971 0.0 0.0 0.0 16.28999089631971 0.0 0.0 0.0 34.529650657227435" Properties=species:S:1:pos:R:3:initial_magmoms:R:1 pbc="T T T"
Si       2.02134465       0.81318540      -0.75485311       0.00000000
Si      -1.54381959       1.59698852       0.76127563       0.00000000
Si       0.33041007      -1.32868638       1.91028493       0.00000000
Si      -1.25297793      -0.35559588      -2.00696801       0.00000000
Si      -1.15704612       1.96429544      -2.53969175       0.00000000
Si       2.65421115      -1.14405552      -1.90973246       0.00000000
Si       1.16393679       2.47733270      -2.17502391       0.00000000
Si      -3.12188076       0.19884063       1.79851239       0.00000000
Si      -0.14867883       0.18388641       3.71891451       0.00000000
Si       2.42046594      -2.31385671       1.67296251       0.00000000
