10
Lattice="16.28999089631971 0.0 0.0 0.0 16.28999089631971 0.0 0.0 0.0 34.529650657227435" Properties=species:S:1:pos:R:3:initial_magmoms:R:1 pbc="T T T"
Si      -1.90200411      -1.02912075       0.85015500       0.00000000
Si      -0.80021367       2.19722778      -0.10673121       0.00000000
Si       1.52712234       0.26666730       1.87703286       0.00000000
Si       0.35943885      -1.05572232      -2.16528654       0.00000000
Si       2.73388554       2.04564933       0.74584087       0.00000000
Si       1.25320599       3.25640358      -0.75616524       0.00000000
Si      -2.88767943       2.03392053      -1.21219859       0.00000000
Si      -1.27852065      -0.12422754      -3.62744542       0.00000000
Si      -3.47367960      -1.72830384      -0.76849233       0.00000000
Si      -0.52549911      -3.40266497      -1.98075999       0.00000000
