10
Lattice="16.28999089631971 0.0 0.0 0.0 16.28999089631971 0.0 0.0 0.0 34.529650657227435" Properties=species:S:1:pos:R:3:initial_magmoms:R:1 pbc="T T T"
Si      -1.35749457       1.35641943       1.36381837       0.00000000
Si       1.35956340      -1.35966114       1.36385290       0.00000000
Si       1.37626065       1.35040842      -1.35785165       0.00000000
Si      -1.36599795      -1.38342825      -1.37208132       0.00000000
Si       0.00698841       2.56904703      -2.82278325       0.00000000
Si      -2.71409645      -2.71526607       0.00745841       0.00000000
Si      -2.71543711       2.71546155       0.00473056       0.00000000
Si       2.71386513      -2.71723716       0.00566287       0.00000000
Si       2.71788876       2.71564074       0.00928848       0.00000000
Si       0.00047241       2.71389771       2.72093799       0.00000000
