10
Lattice="16.28999089631971 0.0 0.0 0.0 16.28999089631971 0.0 0.0 0.0 34.529650657227435" Properties=species:S:1:pos:R:3:initial_magmoms:R:1 pbc="T T T"
Si       1.34809850       1.33183782      -1.37953973       0.00000000
Si      -1.35760492       1.35400851       1.35632544       0.00000000
Si       1.35603173      -1.35772263       1.35746491       0.00000000
Si      -1.34618724      -1.34697123      -1.37965368       0.00000000
Si      -0.00050173       2.71417464       2.71334146       0.00000000
Si      -2.71344552       2.71433754      -0.00652611       0.00000000
Si       2.71500869      -0.00117288       2.71341052       0.00000000
Si      -2.71543290      -0.00120546       2.71361770       0.00000000
Si       2.71409645       2.71526607      -0.00745841       0.00000000
Si       2.71385210      -2.71554952      -0.00459245       0.00000000
