10
Lattice="16.28999089631971 0.0 0.0 0.0 16.28999089631971 0.0 0.0 0.0 34.529650657227435" Properties=species:S:1:pos:R:3:initial_magmoms:R:1 pbc="T T T"
Si       0.80021367      -2.19722778       0.10673121       0.00000000
Si      -2.08746576      -0.16330725      -1.10546738       0.00000000
Si       2.05341966       1.05917580      -0.64943403       0.00000000
Si      -0.08110791       1.00304046       2.33890172       0.00000000
Si       1.22205951       3.25396008      -0.57018844       0.00000000
Si      -1.10179044      -3.22634853       0.95688621       0.00000000
Si       0.08638587       3.27445290       1.46025974       0.00000000
Si       2.32733601      -1.93056048       1.98376407       0.00000000
Si       3.53409921      -0.15157845       0.85257208       0.00000000
Si      -3.56241123      -0.16420320       0.73917664       0.00000000
