10
Lattice="16.28999089631971 0.0 0.0 0.0 16.28999089631971 0.0 0.0 0.0 34.529650657227435" Properties=species:S:1:pos:R:3:initial_magmoms:R:1 pbc="T T T"
Si       0.57335913       0.06765237      -2.27018768       0.00000000
Si      -0.83136015       2.19478428       0.07924559       0.00000000
Si      -2.05341966      -1.05917580       0.64943403       0.00000000
Si       1.48067955      -1.21075425       1.50200611       0.00000000
Si       2.36696958       0.99489546      -1.06596544       0.00000000
Si      -1.25320599      -3.25640358       0.75616524       0.00000000
Si      -2.38718547       2.05324047      -1.68812103       0.00000000
Si      -1.96703379       2.21527710       2.10969377       0.00000000
Si       2.10587346       0.50046138       2.96385422       0.00000000
Si      -2.13452757      -0.05613534       2.98833576       0.00000000
