10
Lattice="16.28999089631971 0.0 0.0 0.0 16.28999089631971 0.0 0.0 0.0 34.529650657227435" Properties=species:S:1:pos:R:3:initial_magmoms:R:1 pbc="T T T"
Si       0.88255962      -0.47736216      -2.10571358       0.00000000
Si       1.76471199       1.06103286       1.17090491       0.00000000
Si      -1.06008804      -1.85816772       1.10759476       0.00000000
Si      -1.77409503       1.75252707      -0.21400561       0.00000000
Si      -2.28506346      -0.35636004       2.60833018       0.00000000
Si       0.44659035       2.40388272       2.61147583       0.00000000
Si      -0.78426576      -1.72504584      -3.10531299       0.00000000
Si       1.19738016       1.52119278      -3.39035542       0.00000000
Si       3.11901372       2.34196443      -0.42726085       0.00000000
Si      -3.67929198       0.85706577       1.10962165       0.00000000
