10
Lattice="16.28999089631971 0.0 0.0 0.0 16.28999089631971 0.0 0.0 0.0 34.529650657227435" Properties=species:S:1:pos:R:3:initial_magmoms:R:1 pbc="T T T"
Si      -0.46209843      -2.20638276       0.54263376       0.00000000
Si      -1.81411956       1.39427739      -0.55067918       0.00000000
Si       1.38901572       0.23319135      -1.91142441       0.00000000
Si       0.71908947       1.28176236       1.89695648       0.00000000
Si       3.12282558      -0.54902187       0.38883861       0.00000000
Si      -2.73654081      -0.30623571      -1.81097760       0.00000000
Si      -0.42314904       3.35673369      -0.57502259       0.00000000
Si      -1.42649901       1.26791586       2.89873126       0.00000000
Si      -2.55524940      -2.31063876      -0.50012774       0.00000000
Si       0.63223119       2.44693719      -2.49608078       0.00000000
