10
Lattice="16.28999089631971 0.0 0.0 0.0 16.28999089631971 0.0 0.0 0.0 34.529650657227435" Properties=species:S:1:pos:R:3:initial_magmoms:R:1 pbc="T T T"
Si      -1.35679410      -1.35685926      -1.37390104       0.00000000
Si       1.36355445       1.35625653      -1.37866613       0.00000000
Si      -1.44024777       1.34282075       1.31792844       0.00000000
Si       1.29360519      -1.51241247       1.40380373       0.00000000
Si      -2.42577648      -0.21393657       2.86610072       0.00000000
Si       2.71274112       2.68481747      -0.01394999       0.00000000
Si       2.71647153      -2.71824714      -0.02303129       0.00000000
Si      -2.71443528      -2.72723922       0.02037251       0.00000000
Si       0.00011403       2.71432518      -2.73602746       0.00000000
Si       0.00167787      -2.71466334      -2.73620011       0.00000000
