10
Lattice="16.28999089631971 0.0 0.0 0.0 16.28999089631971 0.0 0.0 0.0 34.529650657227435" Properties=species:S:1:pos:R:3:initial_magmoms:R:1 pbc="T T T"
Si       1.34918667       1.32856094       1.36471615       0.00000000
Si       1.35149985      -1.35589815      -1.35787927       0.00000000
Si      -1.36344042       1.35806865      -1.35736133       0.00000000
Si      -1.36355445      -1.35625653       1.37866613       0.00000000
Si      -0.09585036       2.62745387       2.69894259       0.00000000
Si       2.70451467      -2.71046052       0.00127760       0.00000000
Si       2.70971118       0.00228142      -2.71468812       0.00000000
Si      -0.00461007      -2.71277370      -2.71461906       0.00000000
Si       2.71389771       2.71701629       0.00421262       0.00000000
Si      -0.00531054       2.71773305      -2.71489530       0.00000000
