10
Lattice="16.28999089631971 0.0 0.0 0.0 16.28999089631971 0.0 0.0 0.0 34.529650657227435" Properties=species:S:1:pos:R:3:initial_magmoms:R:1 pbc="T T T"
Si      -1.05538023       0.90979650       1.92105819       0.00000000
Si       0.75678453      -2.21374584       0.58465637       0.00000000
Si       2.31925617       1.05213852      -0.00790729       0.00000000
Si      -1.92981114       0.54073026      -1.66450274       0.00000000
Si       1.02320748       3.10085267       0.16705454       0.00000000
Si      -2.44635075      -1.05265980       1.94540161       0.00000000
Si       0.99826749      -2.62065375      -1.80065323       0.00000000
Si      -0.63223119      -2.44693719       2.49608078       0.00000000
Si       1.78957053      -0.75774564      -3.12679973       0.00000000
Si      -2.64821643       2.46801549       1.31375035       0.00000000
