10
Lattice="16.28999089631971 0.0 0.0 0.0 16.28999089631971 0.0 0.0 0.0 34.529650657227435" Properties=species:S:1:pos:R:3:initial_magmoms:R:1 pbc="T T T"
Si       1.35760492      -1.35400851      -1.35632544       0.00000000
Si      -1.35782798      -1.35521397       1.35729227       0.00000000
Si       1.35710318       1.36016613       1.35701603       0.00000000
Si      -1.35584060       1.36032903      -1.36285154       0.00000000
Si       2.71363664      -2.71173114       0.00113948       0.00000000
Si      -0.00046595      -2.71244790       2.71503342       0.00000000
Si       2.71482581       0.00273672       2.71465359       0.00000000
Si      -2.71494788       0.00162900       2.71475718       0.00000000
Si      -2.71778234      -2.71329498      -0.00041436       0.00000000
Si       2.71420679       2.71767699       0.00003453       0.00000000
