10
Lattice="16.28999089631971 0.0 0.0 0.0 16.28999089631971 0.0 0.0 0.0 34.529650657227435" Properties=species:S:1:pos:R:3:initial_magmoms:R:1 pbc="T T T"
Si      -1.99568790       1.12936941      -0.38638701       0.00000000
Si       1.53404559       0.58942107      -1.77883048       0.00000000
Si      -0.56110905      -2.19857985      -0.86862838       0.00000000
Si       0.36323442      -0.27533358       2.44535670       0.00000000
Si       3.33470961      -0.50666787      -0.73099311       0.00000000
Si      -0.00935046      -0.07811055      -3.48580471       0.00000000
Si      -1.86873993       1.23704631      -2.71558589       0.00000000
Si      -1.75829373       3.26689012       0.52989232       0.00000000
Si       2.03768352       2.88640881      -1.63611935       0.00000000
Si       3.01988907      -2.50522281       0.55364873       0.00000000
