10
Lattice="16.28999089631971 0.0 0.0 0.0 16.28999089631971 0.0 0.0 0.0 34.529650657227435" Properties=species:S:1:pos:R:3:initial_magmoms:R:1 pbc="T T T"
Si      -1.35299853       1.35821622       1.36057259       0.00000000
Si      -1.35718506      -1.35651865      -1.35832816       0.00000000
Si       1.36000323      -1.35787813       1.35611826       0.00000000
Si       1.35765525       1.35886782      -1.35781021       0.00000000
Si       2.71328425      -2.71424210      -0.00172648       0.00000000
Si       0.00055386      -2.71403033      -2.71548230       0.00000000
Si      -2.71446786       0.00068418      -2.71520607       0.00000000
Si      -2.71539639      -2.71469822      -0.00151931       0.00000000
Si       2.71554367       0.00094808      -2.71572401       0.00000000
Si       2.71514294       2.71623207      -0.00086324       0.00000000
