10
Lattice="16.28999089631971 0.0 0.0 0.0 16.28999089631971 0.0 0.0 0.0 34.529650657227435" Properties=species:S:1:pos:R:3:initial_magmoms:R:1 pbc="T T T"
Si      -1.92518478      -0.87017922       1.09597172       0.00000000
Si      -0.68017266       1.38116394      -1.84602522       0.00000000
Si       0.76694949       1.05187788       2.02233371       0.00000000
Si       1.95647365      -1.19211686      -0.83251034       0.00000000
Si       3.58177094       0.43811955      -0.43075763       0.00000000
Si       3.04424981       0.78356529       1.90217046       0.00000000
Si      -3.46250466      -1.43724389      -0.54118352       0.00000000
Si       2.63760254      -2.53234664       1.02314865       0.00000000
Si      -2.52967410       0.66471345       2.81641253       0.00000000
Si       0.23662854       3.30545277       2.03655993       0.00000000
