10
Lattice="16.28999089631971 0.0 0.0 0.0 16.28999089631971 0.0 0.0 0.0 34.529650657227435" Properties=species:S:1:pos:R:3:initial_magmoms:R:1 pbc="T T T"
Si       2.27730032      -0.26831259      -0.12016325       0.00000000
Si      -0.53032095       2.25357489       0.01422622       0.00000000
Si      -0.76694949      -1.05187788      -2.02233371       0.00000000
Si      -1.21681413      -0.45564759       2.05700150       0.00000000
Si      -3.29662359      -0.38716443       0.79407882       0.00000000
Si      -2.89962000       1.83076794      -0.12416869       0.00000000
Si      -2.69213427      -1.92205710      -0.92636199       0.00000000
Si       2.81482145      -0.61375833      -2.45309134       0.00000000
Si       1.18952416      -2.24399474      -2.85484405       0.00000000
Si       2.97127061      -2.31859805       0.65274888       0.00000000
