10
Lattice="16.28999089631971 0.0 0.0 0.0 16.28999089631971 0.0 0.0 0.0 34.529650657227435" Properties=species:S:1:pos:R:3:initial_magmoms:R:1 pbc="T T T"
Si       0.74516976      -0.09154980       2.34936421       0.00000000
Si       2.51038674       0.10808415      -0.27799837       0.00000000
Si      -1.48726071       2.05001505      -0.02807262       0.00000000
Si      -0.71548938      -2.09733945      -1.25439385       0.00000000
Si       2.61021186      -0.79515562      -2.49891221       0.00000000
Si      -1.15776288      -0.91148740       3.61031667       0.00000000
Si       0.87649974      -2.31382250      -3.08332688       0.00000000
Si      -1.24502841      -3.71808566       0.61286711       0.00000000
Si      -3.01438305       1.78334775      -1.90510548       0.00000000
Si      -0.28049751       3.82899708      -1.15926461       0.00000000
