10
Lattice="16.28999089631971 0.0 0.0 0.0 16.28999089631971 0.0 0.0 0.0 34.529650657227435" Properties=species:S:1:pos:R:3:initial_magmoms:R:1 pbc="T T T"
Si       1.35711990      -1.35684297      -1.35746491       0.00000000
Si      -1.35930276      -1.35676152       1.35632544       0.00000000
Si      -1.35788553       1.35806472      -1.35763756       0.00000000
Si       1.35803214       1.35944937       1.35794833       0.00000000
Si       2.71448193      -2.71407690       0.00027624       0.00000000
Si      -2.71538010      -2.71401174      -0.00044889       0.00000000
Si       2.71494788      -0.00162900      -2.71475718       0.00000000
Si      -0.00156384       2.71453302      -2.71541325       0.00000000
Si      -0.00283446      -2.71492398      -2.71517154       0.00000000
Si      -2.71632492      -0.00109143      -2.71482624       0.00000000
