10
Lattice="16.28999089631971 0.0 0.0 0.0 16.28999089631971 0.0 0.0 0.0 34.529650657227435" Properties=species:S:1:pos:R:3:initial_magmoms:R:1 pbc="T T T"
Si      -1.35607734      -1.35725022      -1.35677432       0.00000000
Si       1.35930276       1.35676152      -1.35632544       0.00000000
Si      -1.35687555       1.35777150       1.36091788       0.00000000
Si       1.36313091      -1.35796698       1.36233360       0.00000000
Si      -2.70145215       0.00410508       2.71399753       0.00000000
Si      -2.71363707       0.00003258      -2.71337599       0.00000000
Si      -2.71362078       2.71376739       0.00072512       0.00000000
Si       0.00141723       2.71482624      -2.71396300       0.00000000
Si       0.00166158      -2.71549902      -2.71344505       0.00000000
Si       2.71642266      -0.00008145      -2.71379035       0.00000000
