10
Lattice="16.28999089631971 0.0 0.0 0.0 16.28999089631971 0.0 0.0 0.0 34.529650657227435" Properties=species:S:1:pos:R:3:initial_magmoms:R:1 pbc="T T T"
Si      -0.15643287       1.45653777       1.82617065       0.00000000
Si      -1.15015545      -2.05890939       0.18442297       0.00000000
Si      -1.49635053       0.98800479      -1.57020221       0.00000000
Si       2.06089677      -0.14463891      -1.33546952       0.00000000
Si      -0.28533564      -2.66677074      -1.97478635       0.00000000
Si       0.69892245      -0.79537554      -3.18512035       0.00000000
Si      -2.32538121       2.22452982       1.60846109       0.00000000
Si      -1.90407294       3.06185211      -0.60858543       0.00000000
Si       0.34766118       0.13867677       3.68624945       0.00000000
Si      -3.43675017      -1.34952876       0.40651780       0.00000000
