10
Lattice="16.28999089631971 0.0 0.0 0.0 16.28999089631971 0.0 0.0 0.0 34.529650657227435" Properties=species:S:1:pos:R:3:initial_magmoms:R:1 pbc="T T T"
Si      -1.36510200      -1.89991899      -0.53023761       0.00000000
Si      -0.08304642       1.18724778      -2.16293853       0.00000000
Si       2.03924966      -1.47947409       0.46811874       0.00000000
Si      -1.16708076       1.28653533       1.89747442       0.00000000
Si      -2.53729782      -2.26044927       1.42372735       0.00000000
Si      -0.89674821      -0.48351978      -3.61484209       0.00000000
Si      -2.94502023      -0.18660195       2.38534413       0.00000000
Si      -2.65342923      -1.47163860      -2.40789200       0.00000000
Si       0.50948604       1.67202189       3.46912688       0.00000000
Si       2.47831403       2.02593843       2.22043043       0.00000000
