10
Lattice="16.28999089631971 0.0 0.0 0.0 16.28999089631971 0.0 0.0 0.0 34.529650657227435" Properties=species:S:1:pos:R:3:initial_magmoms:R:1 pbc="T T T"
Si       1.47281148      -0.12271257       1.81487945       0.00000000
Si      -1.64853660      -1.66904082       0.41628970       0.00000000
Si       0.90070668      -0.81666657      -2.06649716       0.00000000
Si      -0.97558855       2.27362788      -0.27268080       0.00000000
Si       1.63901835      -2.40073875       1.25801947       0.00000000
Si      -2.31942257       1.15386957      -1.89516094       0.00000000
Si      -0.94716576      -0.11078829      -3.40631741       0.00000000
Si      -3.48119648      -0.43451946      -0.51597686       0.00000000
Si       2.84008005       0.91574235      -2.17498938       0.00000000
Si      -1.76559002      -2.34672111       2.70187761       0.00000000
