10
Lattice="16.28999089631971 0.0 0.0 0.0 16.28999089631971 0.0 0.0 0.0 34.529650657227435" Properties=species:S:1:pos:R:3:initial_magmoms:R:1 pbc="T T T"
Si       1.35740688      -1.35739683       1.35729227       0.00000000
Si       1.35821940       1.35699801      -1.35705056       0.00000000
Si      -1.35773892       1.35751168       1.35715415       0.00000000
Si      -1.35917244      -1.35591444      -1.35732680       0.00000000
Si       2.71273039      -0.00021177       2.71375582       0.00000000
Si      -2.71692765       0.00309510      -2.71085533       0.00000000
Si       2.71315556       0.00379557      -2.71527513       0.00000000
Si       2.71466564      -2.71463076      -0.00010359       0.00000000
Si      -0.00055386       2.71403033       2.71548230       0.00000000
Si      -2.71502172      -2.71456560      -0.00017265       0.00000000
