10
Lattice="16.28999089631971 0.0 0.0 0.0 16.28999089631971 0.0 0.0 0.0 34.529650657227435" Properties=species:S:1:pos:R:3:initial_magmoms:R:1 pbc="T T T"
Si      -2.19137967       0.44790984       0.59580946       0.00000000
Si       0.63710190       1.70123542      -1.54278565       0.00000000
Si       1.07789301      -0.94701915       1.90900733       0.00000000
Si       0.13142772      -2.06042436      -1.21720540       0.00000000
Si      -2.47661757      -1.51558902       1.88297196       0.00000000
Si       2.83687974       1.84613171      -0.82729636       0.00000000
Si      -0.43626249      -2.75046876       2.09564020       0.00000000
Si       3.37782014      -0.46786509      -0.91006398       0.00000000
Si      -3.15810972       0.86527593      -1.52548629       0.00000000
Si       2.10025571      -1.70650782      -2.46590185       0.00000000
