10
Lattice="16.28999089631971 0.0 0.0 0.0 16.28999089631971 0.0 0.0 0.0 34.529650657227435" Properties=species:S:1:pos:R:3:initial_magmoms:R:1 pbc="T T T"
Si       1.20769173      -1.58416992      -1.34265169       0.00000000
Si      -1.42009704       1.24986654      -1.51360808       0.00000000
Si       1.23085611       1.27439928       1.67511168       0.00000000
Si      -1.35430173      -1.28093157       1.59816576       0.00000000
Si      -1.92163356      -0.82077165      -2.96309457       0.00000000
Si       2.60553663      -2.56145589       0.41158922       0.00000000
Si       2.29961043       3.03103047       0.48786042       0.00000000
Si      -3.11901372      -2.34196443       0.42726085       0.00000000
Si      -2.23645410      -2.81932659      -1.67845273       0.00000000
Si      -2.87899686       2.75801103      -0.11515645       0.00000000
