10
Lattice="16.28999089631971 0.0 0.0 0.0 16.28999089631971 0.0 0.0 0.0 34.529650657227435" Properties=species:S:1:pos:R:3:initial_magmoms:R:1 pbc="T T T"
Si      -1.47281148       0.12271257      -1.81487945       0.00000000
Si       0.16620687      -2.27802618      -0.55685999       0.00000000
Si      -0.69056568       0.10652031       2.30875732       0.00000000
Si       2.23236531       0.89715546      -0.23259186       0.00000000
Si       2.03069511       2.63322963       1.31040097       0.00000000
Si       3.52458585      -0.93256992       0.65782474       0.00000000
Si       0.48555603       2.08256247       3.06544051       0.00000000
Si       2.46650148      -2.79059103      -0.33580104       0.00000000
Si      -3.12134808      -1.54632825      -1.39858975       0.00000000
Si      -3.05321515      -0.38972196       2.46624715       0.00000000
