10
Lattice="16.28999089631971 0.0 0.0 0.0 16.28999089631971 0.0 0.0 0.0 34.529650657227435" Properties=species:S:1:pos:R:3:initial_magmoms:R:1 pbc="T T T"
Si      -1.37440359      -1.82171070      -0.17558337       0.00000000
Si       0.18406071       1.73123604       1.49855315       0.00000000
Si       1.98387765      -1.14051177      -0.31891603       0.00000000
Si      -0.63522855       1.27172772      -1.82882944       0.00000000
Si      -0.83688246      -2.16715644      -2.50851146       0.00000000
Si       1.93564296       2.96188038       0.38352104       0.00000000
Si      -2.63537014       2.19911742      -1.00767936       0.00000000
Si       0.92929563       3.02946759      -1.84671581       0.00000000
Si      -1.68085107       3.14074458       0.98944769       0.00000000
Si       1.35480672      -3.44119734      -0.58282630       0.00000000
