10
Lattice="16.28999089631971 0.0 0.0 0.0 16.28999089631971 0.0 0.0 0.0 34.529650657227435" Properties=species:S:1:pos:R:3:initial_magmoms:R:1 pbc="T T T"
Si      -1.35668496       1.35814617      -1.35684338       0.00000000
Si       1.35839052      -1.35671265      -1.35694697       0.00000000
Si      -1.35740009      -1.35834165       1.35639450       0.00000000
Si       1.35716877       1.35721764       1.35777568       0.00000000
Si      -0.00825903      -2.70860346       2.71147686       0.00000000
Si      -2.71222541       0.00267156       2.71458453       0.00000000
Si      -2.71299410      -2.71399545       0.00034530       0.00000000
Si      -2.71444213      -0.00099369      -2.71299617       0.00000000
Si       0.00042354      -2.71419093      -2.71406659       0.00000000
Si      -0.00127062       2.71427238      -2.71423924       0.00000000
