10
Lattice="16.28999089631971 0.0 0.0 0.0 16.28999089631971 0.0 0.0 0.0 34.529650657227435" Properties=species:S:1:pos:R:3:initial_magmoms:R:1 pbc="T T T"
Si       1.34914106      -1.35026181       1.35508237       0.00000000
Si      -1.35559401      -1.35565380      -1.35604920       0.00000000
Si       1.35740009       1.35834165      -1.35639450       0.00000000
Si      -1.35482532       1.36101321       1.35819004       0.00000000
Si      -2.71329891      -2.71244790       0.00220990       0.00000000
Si       0.00072002      -2.71336014      -2.71347958       0.00000000
Si      -2.71386906       0.00153126      -2.71330694       0.00000000
Si       2.71579061       0.00162900      -2.71334146       0.00000000
Si      -2.71492791       2.71423980       0.00183007       0.00000000
Si       0.00071513       2.71648782      -2.71323788       0.00000000
