10
Lattice="16.28999089631971 0.0 0.0 0.0 16.28999089631971 0.0 0.0 0.0 34.529650657227435" Properties=species:S:1:pos:R:3:initial_magmoms:R:1 pbc="T T T"
Si      -1.35621418      -1.35863650       1.35598014       0.00000000
Si      -1.35603173       1.35772263      -1.35746491       0.00000000
Si       1.35897696       1.35654975       1.35594561       0.00000000
Si       1.35782037      -1.35782689      -1.36205736       0.00000000
Si      -2.71363664       2.71173114      -0.00113948       0.00000000
Si      -0.00793323       2.68956045      -2.73700465       0.00000000
Si       0.00118917       2.71446786       2.71351411       0.00000000
Si      -2.71410260      -0.00071676       2.71389394       0.00000000
Si      -2.71298458      -2.71661690      -0.00082871       0.00000000
Si       2.71704168      -0.00055386       2.71268540       0.00000000
