10
Lattice="16.28999089631971 0.0 0.0 0.0 16.28999089631971 0.0 0.0 0.0 34.529650657227435" Properties=species:S:1:pos:R:3:initial_magmoms:R:1 pbc="T T T"
Si      -1.86647466       1.40224320       0.22879359       0.00000000
Si       1.64709004       1.43760879       0.96468992       0.00000000
Si      -0.78656169      -1.74439836       1.46882310       0.00000000
Si       1.06604203       1.56349791      -2.67815573       0.00000000
Si       2.84326474       1.32194979      -1.05577919       0.00000000
Si      -3.61496181      -0.15462468       0.19236479       0.00000000
Si      -1.39763217      -1.75580136      -2.96927538       0.00000000
Si       0.16540377      -3.33387882      -1.97551148       0.00000000
Si      -0.42126103      -3.90054276       0.28055357       0.00000000
Si      -1.90809561       3.30931350      -1.15860855       0.00000000
