10
Lattice="16.28999089631971 0.0 0.0 0.0 16.28999089631971 0.0 0.0 0.0 34.529650657227435" Properties=species:S:1:pos:R:3:initial_magmoms:R:1 pbc="T T T"
Si       1.97540685       1.10240946       0.61013927       0.00000000
Si      -1.27865097       0.75696372      -1.81360186       0.00000000
Si       1.02094317      -2.12375988      -0.19678459       0.00000000
Si      -1.08719460       0.19618047       2.09653797       0.00000000
Si       2.24541360       0.06375906       2.73426644       0.00000000
Si       2.02729050      -2.19134709       2.03345226       0.00000000
Si      -1.58920353      -2.01248289       2.63937891       0.00000000
Si       1.33239168       3.32112375       1.19887014       0.00000000
Si       2.13271938      -2.25261378      -2.31500719       0.00000000
Si      -1.74998583       3.08607534      -1.56063749       0.00000000
