10
Lattice="16.28999089631971 0.0 0.0 0.0 16.28999089631971 0.0 0.0 0.0 34.529650657227435" Properties=species:S:1:pos:R:3:initial_magmoms:R:1 pbc="T T T"
Si      -0.99585657      -2.19929661       0.15662658       0.00000000
Si       0.16280226       1.03902507      -2.19166721       0.00000000
Si       2.05750845      -0.35192916       1.35118051       0.00000000
Si      -0.78912018       1.75358592       1.67969579       0.00000000
Si      -2.30364872       0.03297096       2.32522797       0.00000000
Si      -2.87538374      -1.76397894      -1.20070021       0.00000000
Si      -1.94753466      -2.24539731       2.24940082       0.00000000
Si       2.03123268       0.15693786      -3.30027679       0.00000000
Si       1.47789396       0.53568036       3.56353100       0.00000000
Si      -3.65002976       0.55260567      -1.38025450       0.00000000
