10
Lattice="10.86 0.0 0.0 0.0 10.86 0.0 0.0 0.0 10.86" Properties=species:S:1:pos:R:3:initial_magmoms:R:1 pbc="T T T"
Si       0.93030018       0.87332862       1.65406488       0.00000000
Si       1.26229038      -1.29971394      -1.40211288       0.00000000
Si      -1.45270962      -1.29971394       1.31288712       0.00000000
Si      -1.45270962       1.41528606      -1.40211288       0.00000000
Si       2.45494644       2.28102354       0.03993222       0.00000000
Si       2.61353502      -2.53204158       0.02357706       0.00000000
Si       1.46670816      -0.88455786       3.32533200       0.00000000
Si       2.61979038       0.05778606      -2.75961288       0.00000000
Si      -0.09520962      -2.65721394      -2.75961288       0.00000000
Si      -0.05523396       2.64871056       2.80510542       0.00000000
