10
Lattice="16.28999089631971 0.0 0.0 0.0 16.28999089631971 0.0 0.0 0.0 34.48637585096406" Properties=species:S:1:pos:R:3:initial_magmoms:R:1 pbc="T T T"
Si      -1.35731538      -1.35715072      -1.35676376       0.00000000
Si       1.35754344      -1.35745518       1.35724657       0.00000000
Si      -1.35747828       1.35783014       1.35741900       0.00000000
Si       1.35920502       1.35696677      -1.35728105       0.00000000
Si      -2.71257822      -0.00022806      -2.71532081       0.00000000
Si       2.71477737      -2.71373222       0.00044832       0.00000000
Si       0.00016290       2.71467311       2.71438967       0.00000000
Si       2.71360449      -0.00164855      -2.71576913       0.00000000
Si       2.71469592      -0.00080961       2.71480351       0.00000000
Si      -2.71507059      -2.71459559      -0.00034486       0.00000000
