10
Lattice="16.28999089631971 0.0 0.0 0.0 16.28999089631971 0.0 0.0 0.0 34.48637585096406" Properties=species:S:1:pos:R:3:initial_magmoms:R:1 pbc="T T T"
Si       1.35738054      -1.35726651       1.35759143       0.00000000
Si      -1.35759231       1.35726651       1.35759143       0.00000000
Si       1.35703845       1.35931905      -1.35703965       0.00000000
Si      -1.35829278      -1.35860229      -1.35721208       0.00000000
Si      -0.00117288       2.71376739      -2.71345854       0.00000000
Si       2.71502172      -0.00042354       2.71456211       0.00000000
Si      -2.71515367      -0.00073305       2.71445865       0.00000000
Si       2.71490769       2.71484253       0.00024140       0.00000000
Si       2.71485882      -2.71509665       0.00017243       0.00000000
Si      -2.71528888      -2.71494027       0.00027589       0.00000000
