10
Lattice="16.28999089631971 0.0 0.0 0.0 16.28999089631971 0.0 0.0 0.0 34.48637585096406" Properties=species:S:1:pos:R:3:initial_magmoms:R:1 pbc="T T T"
Si       1.35798327      -1.35666378      -1.36252298       0.00000000
Si      -1.35778779       1.35979146      -1.36210915       0.00000000
Si       1.36594908       1.35267273       1.37731765       0.00000000
Si      -1.35837423      -1.35433431       1.38559438       0.00000000
Si      -0.12162114       2.67654474       2.68780066       0.00000000
Si       2.71474479      -2.71078632      -0.00241405       0.00000000
Si      -2.71538010      -2.71063971       0.00075870       0.00000000
Si       0.00034209      -2.71350675      -2.71949366       0.00000000
Si       2.71643895       2.71665072      -0.00103459       0.00000000
Si      -2.71463076       0.00102627      -2.71949366       0.00000000
