10
Lattice="16.28999089631971 0.0 0.0 0.0 16.28999089631971 0.0 0.0 0.0 34.48637585096406" Properties=species:S:1:pos:R:3:initial_magmoms:R:1 pbc="T T T"
Si       0.04245174      -0.10678095       2.33090096       0.00000000
Si      -0.94775220       1.99757754      -0.98969057       0.00000000
Si       2.37526119       0.49922334      -1.00858911       0.00000000
Si      -0.30893985      -2.45723247      -1.03221229       0.00000000
Si       1.87238889      -1.69955199      -1.72825121       0.00000000
Si       1.22030019       2.13759009      -2.31355430       0.00000000
Si       1.92021633      -1.96745733       2.35311020       0.00000000
Si      -2.81857725       1.09431333      -2.15098544       0.00000000
Si      -1.70012214      -0.28538451      -3.72111652       0.00000000
Si      -1.93367187      -0.77203197       3.59758767       0.00000000
