10
Lattice="16.28999089631971 0.0 0.0 0.0 16.28999089631971 0.0 0.0 0.0 34.48637585096406" Properties=species:S:1:pos:R:3:initial_magmoms:R:1 pbc="T T T"
Si       1.22228757      -1.50012981       1.36624752       0.00000000
Si      -1.47976731       1.26169308       1.36135045       0.00000000
Si       1.89840402       0.88062111      -1.18928092       0.00000000
Si      -1.97640054      -0.76621644      -1.15725755       0.00000000
Si       2.57927715      -0.12300579       2.73457456       0.00000000
Si      -0.13605408       2.59214625       2.74236849       0.00000000
Si      -2.71123592       2.64715758      -0.22807233       0.00000000
Si      -1.46888559      -0.54064881      -3.50216727       0.00000000
Si       3.55713327      -0.98396487      -1.12447547       0.00000000
Si       2.72785824       2.73880512      -0.02519576       0.00000000
