10
Lattice="16.28999089631971 0.0 0.0 0.0 16.28999089631971 0.0 0.0 0.0 34.48637585096406" Properties=species:S:1:pos:R:3:initial_magmoms:R:1 pbc="T T T"
Si      -1.77272667       0.09485667       1.51429761       0.00000000
Si      -0.35264592      -2.09161971      -1.04607582       0.00000000
Si       1.51663158      -1.12008411       1.43649630       0.00000000
Si       1.18249110       2.06019630      -0.93799546       0.00000000
Si      -0.92528829      -1.20541113      -3.12250167       0.00000000
Si       3.57181056      -0.32650047       0.68407213       0.00000000
Si      -2.08026558       2.28522636       2.06145875       0.00000000
Si      -3.83401440      -0.00876402      -0.17691521       0.00000000
Si       2.42844804       0.95781942      -2.89771935       0.00000000
Si       3.43787418       1.98852030       0.41290561       0.00000000
