10
Lattice="16.28999089631971 0.0 0.0 0.0 16.28999089631971 0.0 0.0 0.0 34.48637585096406" Properties=species:S:1:pos:R:3:initial_magmoms:R:1 pbc="T T T"
Si      -2.12351553      -0.91044810       0.52595201       0.00000000
Si       0.44810532       1.62777825       1.70628337       0.00000000
Si      -0.07986987       0.81202392      -2.27344663       0.00000000
Si       1.60660125      -2.01833100       0.19708975       0.00000000
Si      -1.31411430      -2.19585942       2.30582935       0.00000000
Si       2.05933293      -1.72059867      -2.17702266       0.00000000
Si       2.72476314      -1.15258266       2.14326048       0.00000000
Si      -0.19565919      -3.57555726       0.73569827       0.00000000
Si       0.55671075      -1.29259521       3.46712422       0.00000000
Si       2.86550874       1.66443075       1.80250041       0.00000000
