10
Lattice="16.28999089631971 0.0 0.0 0.0 16.28999089631971 0.0 0.0 0.0 34.48637585096406" Properties=species:S:1:pos:R:3:initial_magmoms:R:1 pbc="T T T"
Si       1.35697329      -1.35710361       1.35679824       0.00000000
Si      -1.35819504      -1.35586557      -1.35683273       0.00000000
Si       1.35668007       1.35862280      -1.35683273       0.00000000
Si      -1.36019871       1.35748415       1.36017791       0.00000000
Si       0.01132155      -2.70383049       2.70369889       0.00000000
Si       2.71423980      -2.71220355       0.00089665       0.00000000
Si       2.71391400       0.00234576      -2.71363097       0.00000000
Si      -0.00091224      -2.71396287      -2.71359649       0.00000000
Si       2.71383255       2.71526837       0.00072421       0.00000000
Si      -2.71614573      -2.71394658       0.00062076       0.00000000
