10
Lattice="16.28999089631971 0.0 0.0 0.0 16.28999089631971 0.0 0.0 0.0 34.48637585096406" Properties=species:S:1:pos:R:3:initial_magmoms:R:1 pbc="T T T"
Si       2.29609179      -0.08874792       0.69569405       0.00000000
Si      -1.47852927      -1.35402480       1.33662370       0.00000000
Si       0.69932970      -1.32108642      -1.93396255       0.00000000
Si      -0.59263020       2.17801277      -0.93947838       0.00000000
Si       2.77545762      -1.78412967      -0.88509333       0.00000000
Si       2.66642865       2.17092662       0.32444801       0.00000000
Si       1.70323353       2.54049785      -1.74028696       0.00000000
Si      -2.51113608      -2.41424316      -0.51691658       0.00000000
Si      -1.22132646      -2.52087750      -2.50791963       0.00000000
Si      -0.98828172       3.58325333       1.00307129       0.00000000
