10
Lattice="16.28999089631971 0.0 0.0 0.0 16.28999089631971 0.0 0.0 0.0 34.48637585096406" Properties=species:S:1:pos:R:3:initial_magmoms:R:1 pbc="T T T"
Si      -1.35060390      -1.34900163      -1.36254368       0.00000000
Si      -1.35439947       1.35861532       1.35848808       0.00000000
Si       1.35889551      -1.35647282       1.36100558       0.00000000
Si       1.35992178       1.36232944      -1.36851672       0.00000000
Si       2.70775638      -2.70496494       0.00455220       0.00000000
Si      -2.71573848      -2.71097595      -0.00286237       0.00000000
Si       0.00117288      -2.71208367       2.71621745       0.00000000
Si      -2.71360449       0.00164855       2.71576913       0.00000000
Si      -2.71484253       2.71588183      -0.00437977       0.00000000
Si       0.02230101      -2.65627413      -2.77372007       0.00000000
