10
Lattice="16.28999089631971 0.0 0.0 0.0 16.28999089631971 0.0 0.0 0.0 34.48637585096406" Properties=species:S:1:pos:R:3:initial_magmoms:R:1 pbc="T T T"
Si       1.34886087      -1.34849212      -1.35645338       0.00000000
Si      -1.35772263      -1.35561085       1.35521187       0.00000000
Si       1.35645201       1.35790960       1.35559122       0.00000000
Si      -1.35889551       1.35647282      -1.36100558       0.00000000
Si      -2.71257822      -2.71269817      -0.00375902       0.00000000
Si       2.71549413      -0.00995989      -2.71056858       0.00000000
Si       0.00004887      -2.71439233       2.71221703       0.00000000
Si      -2.71495656       0.00066619       2.71201011       0.00000000
Si       2.71505430       0.00044900       2.71235498       0.00000000
Si      -0.00022806       2.71595152       2.71204460       0.00000000
