10
Lattice="16.28999089631971 0.0 0.0 0.0 16.28999089631971 0.0 0.0 0.0 34.48637585096406" Properties=species:S:1:pos:R:3:initial_magmoms:R:1 pbc="T T T"
Si       0.12158856      -1.93024350      -1.29230868       0.00000000
Si       1.00763424       0.18364206       2.25096150       0.00000000
Si      -2.19439332       0.83412945      -1.12701539       0.00000000
Si       2.75079456       0.65405327      -0.99438072       0.00000000
Si       1.51664787      -0.53647110      -2.61106843       0.00000000
Si       1.35664749       2.44169018       1.52760936       0.00000000
Si      -2.86982559       1.80123254       0.93213277       0.00000000
Si      -0.86465691       3.21193025       1.13729234       0.00000000
Si       0.09036063      -3.51586323       0.48939643       0.00000000
Si      -1.20987459       2.40451640      -2.54002646       0.00000000
