10
Lattice="16.28999089631971 0.0 0.0 0.0 16.28999089631971 0.0 0.0 0.0 34.48637585096406" Properties=species:S:1:pos:R:3:initial_magmoms:R:1 pbc="T T T"
Si      -1.48530591      -1.72327090      -0.71266136       0.00000000
Si       2.20411845      -0.50284461       0.78756581       0.00000000
Si       0.15078024       1.23838861      -2.05249229       0.00000000
Si      -1.26407142       1.35360778       1.54585266       0.00000000
Si      -0.53634825       3.28343521       0.44959913       0.00000000
Si       1.80463878      -2.79340987       1.11694537       0.00000000
Si      -1.86802317       2.52091660      -1.73314827       0.00000000
Si      -2.26797525      -2.50797649       1.35217707       0.00000000
Si      -0.30087630       0.98403655       3.61058762       0.00000000
Si      -0.19184733      -2.97101974       2.40104629       0.00000000
