10
Lattice="16.28999089631971 0.0 0.0 0.0 16.28999089631971 0.0 0.0 0.0 34.48637585096406" Properties=species:S:1:pos:R:3:initial_magmoms:R:1 pbc="T T T"
Si       1.84438638      -1.45643581      -0.31606781       0.00000000
Si      -0.31397346       1.08088548      -2.09049630       0.00000000
Si       0.10709046       1.35094110       1.96027567       0.00000000
Si      -1.86839784      -1.47440368      -0.12770312       0.00000000
Si      -0.23765481      -0.92701081      -3.34424919       0.00000000
Si      -1.02763836      -2.76468571      -2.01941984       0.00000000
Si       3.18441807      -0.16237546      -1.78280868       0.00000000
Si      -1.79144388       2.76983268       1.74008004       0.00000000
Si      -2.34859446      -1.93368394       2.18209217       0.00000000
Si      -2.40031521       2.12026893      -2.09408288       0.00000000
