10
Lattice="16.28999089631971 0.0 0.0 0.0 16.28999089631971 0.0 0.0 0.0 34.48637585096406" Properties=species:S:1:pos:R:3:initial_magmoms:R:1 pbc="T T T"
Si      -0.27017942      -1.67008990      -1.67972885       0.00000000
Si       0.40471690       2.06189046      -1.17408932       0.00000000
Si      -2.07301231      -1.07456985       0.74707878       0.00000000
Si       1.03646265       0.26409348       2.21742031       0.00000000
Si      -0.67135000       2.22135327       2.21481797       0.00000000
Si      -2.08482256      -0.78688845      -2.93662000       0.00000000
Si      -1.70977789       2.95782417      -1.57978727       0.00000000
Si      -1.30863664      -2.74473305       2.37883054       0.00000000
Si       0.30997264      -1.56540221       3.61346866       0.00000000
Si       0.12526358      -3.86653643       0.91695876       0.00000000
