10
Lattice="16.28999089631971 0.0 0.0 0.0 16.28999089631971 0.0 0.0 0.0 34.48637585096406" Properties=species:S:1:pos:R:3:initial_magmoms:R:1 pbc="T T T"
Si       0.58062447       1.02936510      -2.04635371       0.00000000
Si       1.91500353      -1.34397387       0.37955726       0.00000000
Si      -1.94491197      -1.36980981      -0.08290529       0.00000000
Si       0.81171441       1.10517876       2.16119341       0.00000000
Si       3.03316542       1.25480241      -1.62482651       0.00000000
Si      -1.68746481       2.17152216      -2.53540528       0.00000000
Si      -3.84344631       0.04908177      -0.30310093       0.00000000
Si       3.50415819      -1.04047488      -1.29986121       0.00000000
Si      -2.60569953      -2.10228314       2.12843133       0.00000000
Si      -2.05200243      -2.72075091      -2.04318097       0.00000000
