10
Lattice="16.28999089631971 0.0 0.0 0.0 16.28999089631971 0.0 0.0 0.0 34.48637585096406" Properties=species:S:1:pos:R:3:initial_magmoms:R:1 pbc="T T T"
Si      -1.60607997      -1.14240141      -1.31917845       0.00000000
Si       1.32150996      -1.36679616       1.45206691       0.00000000
Si      -1.37865528       1.34982198       1.44877001       0.00000000
Si       1.44031293       1.29310020      -1.57627453       0.00000000
Si      -2.68724727       2.67441075       0.00761804       0.00000000
Si       2.71399545       2.65184910      -0.06536206       0.00000000
Si      -3.48384456       0.71827497      -1.34138769       0.00000000
Si       2.75289597      -2.67362720       0.10762859       0.00000000
Si      -2.72171691      -2.70913614       0.03695562       0.00000000
Si       2.67608862      -0.01097946       2.81979044       0.00000000
