10
Lattice="16.28999089631971 0.0 0.0 0.0 16.28999089631971 0.0 0.0 0.0 34.48637585096406" Properties=species:S:1:pos:R:3:initial_magmoms:R:1 pbc="T T T"
Si      -1.07595450      -1.61567478       1.36979961       0.00000000
Si       1.35940050       1.31326722       1.47212075       0.00000000
Si       1.37803626      -1.30857570      -1.48305294       0.00000000
Si      -1.34379468       1.38919491      -1.47049989       0.00000000
Si       2.68612326       2.59511103      -0.08769890       0.00000000
Si       2.64974769      -2.73610098      -0.07207657       0.00000000
Si       0.66016854      -3.46535541       1.46712022       0.00000000
Si      -2.70962973      -2.71174743       0.04555653       0.00000000
Si       0.02399517      -2.68167609      -2.85405957       0.00000000
Si      -2.68952787       0.03479544      -2.85385266       0.00000000
