10
Lattice="16.28999089631971 0.0 0.0 0.0 16.28999089631971 0.0 0.0 0.0 34.48637585096406" Properties=species:S:1:pos:R:3:initial_magmoms:R:1 pbc="T T T"
Si      -0.01881495       2.36944566      -0.33913921       0.00000000
Si      -0.20095344       0.08716779       2.44574066       0.00000000
Si       0.05304024      -1.25191908      -2.26272136       0.00000000
Si       2.54021373      -0.63420228       0.01551888       0.00000000
Si      -2.63925693      -0.61757019       0.03421050       0.00000000
Si       2.27434464      -2.02215915      -1.87240434       0.00000000
Si      -2.32406172       2.92923522      -0.45922084       0.00000000
Si      -3.37694958       1.36749663       1.00803733       0.00000000
Si      -2.03742288       1.54566036       2.92234264       0.00000000
Si       0.58885092       3.67236873       1.51226291       0.00000000
