10
Lattice="16.28999089631971 0.0 0.0 0.0 16.28999089631971 0.0 0.0 0.0 34.48637585096406" Properties=species:S:1:pos:R:3:initial_magmoms:R:1 pbc="T T T"
Si      -1.35700587       1.34920296      -1.35669478       0.00000000
Si       1.35785295       1.35498591       1.35803975       0.00000000
Si       1.35345465      -1.35814617      -1.35966061       0.00000000
Si      -1.35697329      -1.35927018       1.35783284       0.00000000
Si      -2.70301599       0.01860318      -2.71403791       0.00000000
Si       2.71427238       2.71270854      -0.00182778       0.00000000
Si      -2.71243161       2.71476108      -0.00079319       0.00000000
Si       0.00019548       2.71306692       2.71518286       0.00000000
Si      -2.71308321      -2.71536381      -0.00013795       0.00000000
Si      -2.71502172      -0.00131949       2.71518286       0.00000000
