10
Lattice="16.28999089631971 0.0 0.0 0.0 16.28999089631971 0.0 0.0 0.0 34.48637585096406" Properties=species:S:1:pos:R:3:initial_magmoms:R:1 pbc="T T T"
Si       0.28162152      -0.10935477      -2.31934802       0.00000000
Si       1.63717758      -1.56131505       0.81439622       0.00000000
Si      -2.05612380      -1.21639059       0.30492871       0.00000000
Si       0.54126783       2.07099657       1.17933125       0.00000000
Si       2.13252390      -0.39203514       2.74628959       0.00000000
Si      -1.64217861      -1.60997328       2.72477008       0.00000000
Si       0.65220273      -2.45602701      -2.51643777       0.00000000
Si       2.76320754       1.68757884       1.87247331       0.00000000
Si       0.00330687      -0.16912278       3.74656748       0.00000000
Si      -3.00773673       1.10558601      -2.24154671       0.00000000
