10
Lattice="16.28999089631971 0.0 0.0 0.0 16.28999089631971 0.0 0.0 0.0 34.48637585096406" Properties=species:S:1:pos:R:3:initial_magmoms:R:1 pbc="T T T"
Si      -0.63068364      -2.07961398       0.87381628       0.00000000
Si       0.97034643       1.30579011       1.69248881       0.00000000
Si      -2.22193971       0.38341773      -0.69314206       0.00000000
Si       1.84891500       0.00581553      -1.49784760       0.00000000
Si      -1.12602996      -3.24889389      -1.05807709       0.00000000
Si      -3.27152070       0.44295768       1.46594768       0.00000000
Si      -2.08169910       2.34512469      -1.94403258       0.00000000
Si       1.22210838      -2.99577987       1.87043861       0.00000000
Si      -2.76320754      -1.68757884      -1.87247331       0.00000000
Si       3.69199818      -0.61853130      -0.13480732       0.00000000
