10
Lattice="16.28999089631971 0.0 0.0 0.0 16.28999089631971 0.0 0.0 0.0 34.48637585096406" Properties=species:S:1:pos:R:3:initial_magmoms:R:1 pbc="T T T"
Si       0.38147922       0.25967889      -2.36880151       0.00000000
Si       0.79293204       2.34576000      -0.06817960       0.00000000
Si       1.86342939      -1.55307231       0.64044684       0.00000000
Si      -2.29045545      -1.08563076      -0.65210325       0.00000000
Si      -1.98138528      -0.07768701       2.36256779       0.00000000
Si       2.34642789       1.78302195      -1.92144399       0.00000000
Si      -1.31973435      -3.04893414      -1.49977884       0.00000000
Si       0.65769246      -2.91832092       2.10114712       0.00000000
Si      -1.25810928       1.75998789      -3.01642152       0.00000000
Si      -3.10629123       0.60181776      -2.11846477       0.00000000
