10
Lattice="16.28999089631971 0.0 0.0 0.0 16.28999089631971 0.0 0.0 0.0 34.48637585096406" Properties=species:S:1:pos:R:3:initial_magmoms:R:1 pbc="T T T"
Si      -1.33930599      -1.35128808       1.36312995       0.00000000
Si       1.38031833      -1.27659843      -1.41204200       0.00000000
Si       1.37503711       1.36410831       1.35540499       0.00000000
Si      -1.40060526       1.24862850      -1.45920559       0.00000000
Si       2.24987690       0.72029493      -2.53315091       0.00000000
Si       0.37987286       2.19341592      -2.66520656       0.00000000
Si      -2.68160199      -2.71673217      -0.02108498       0.00000000
Si      -2.69360772       0.00666261       2.72079035       0.00000000
Si      -2.68310067       2.73248460      -0.02258169       0.00000000
Si       0.01734150      -2.70788670       2.72196289       0.00000000
