10
Lattice="16.28999089631971 0.0 0.0 0.0 16.28999089631971 0.0 0.0 0.0 34.48637585096406" Properties=species:S:1:pos:R:3:initial_magmoms:R:1 pbc="T T T"
Si       1.42552161       1.24999686       1.35472906       0.00000000
Si      -1.25444403       1.43005023      -1.34876291       0.00000000
Si       1.47347937      -1.30807071      -1.34131385       0.00000000
Si      -1.39659057      -1.29209022       1.45070470       0.00000000
Si       1.39429368      -0.33562287       3.13643418       0.00000000
Si       0.19635966      -2.42369136       2.68466240       0.00000000
Si      -2.60047044       0.05690097      -2.71932123       0.00000000
Si       0.11613141      -2.65724109      -2.71473454       0.00000000
Si      -2.72150514      -2.65856058       0.07269732       0.00000000
Si      -2.49983082       2.86871512       0.18005347       0.00000000
