10
Lattice="16.28999089631971 0.0 0.0 0.0 16.28999089631971 0.0 0.0 0.0 34.48637585096406" Properties=species:S:1:pos:R:3:initial_magmoms:R:1 pbc="T T T"
Si      -1.94867496       1.27555587       0.67807150       0.00000000
Si      -0.67137606      -2.00676510      -1.21981828       0.00000000
Si       1.63857852       0.93359619      -1.66531353       0.00000000
Si       1.37966526      -1.42099299       1.72842364       0.00000000
Si       2.93316111      -1.98373104      -0.12484075       0.00000000
Si       0.96821244      -3.50707410      -0.57219827       0.00000000
Si       2.85006582       2.40614703      -0.24937112       0.00000000
Si       0.51235308       1.85230332      -3.49357529       0.00000000
Si       3.22455663      -0.79983900      -2.22709691       0.00000000
Si      -3.68062776       1.37505519      -0.99541531       0.00000000
