10
Lattice="16.28999089631971 0.0 0.0 0.0 16.28999089631971 0.0 0.0 0.0 34.48637585096406" Properties=species:S:1:pos:R:3:initial_magmoms:R:1 pbc="T T T"
Si       1.58873668       1.12194117      -1.25842556       0.00000000
Si       1.23487974      -1.30468239       1.46600976       0.00000000
Si      -1.48239000      -1.17473706      -1.34667446       0.00000000
Si      -1.46839689       1.41472134       1.42401223       0.00000000
Si      -0.51359112       1.89879498      -2.86421379       0.00000000
Si       0.18707436      -2.17398195      -2.72616475       0.00000000
Si       3.29654933      -0.83531862      -1.25582322       0.00000000
Si       2.57005931      -2.66481431       0.14022513       0.00000000
Si      -2.76553701      -2.59587503       0.09506520       0.00000000
Si       2.58748472       0.06494823       2.80374392       0.00000000
