10
Lattice="16.28999089631971 0.0 0.0 0.0 16.28999089631971 0.0 0.0 0.0 34.48637585096406" Properties=species:S:1:pos:R:3:initial_magmoms:R:1 pbc="T T T"
Si       1.35848826       1.35729909       1.35624646       0.00000000
Si      -1.35814617      -1.35774869       1.35724657       0.00000000
Si       1.36041048      -1.35627608      -1.35686722       0.00000000
Si      -1.35899325       1.35896067      -1.36014342       0.00000000
Si       2.71823085      -0.01249443      -2.70136071       0.00000000
Si       2.71472767      -2.71372856      -0.00065524       0.00000000
Si      -2.71482624       0.00029322       2.71369995       0.00000000
Si       0.00032580       2.71469592       2.71387238       0.00000000
Si       0.00045612      -2.71520930       2.71401032       0.00000000
Si       2.71557499      -0.00029322       2.71380341       0.00000000
