10
Lattice="16.28999089631971 0.0 0.0 0.0 16.28999089631971 0.0 0.0 0.0 34.48637585096406" Properties=species:S:1:pos:R:3:initial_magmoms:R:1 pbc="T T T"
Si       0.96286347       1.77679917       1.24113087       0.00000000
Si      -1.17494883       1.48515930      -1.45349810       0.00000000
Si       1.55589604      -1.21822810      -1.43656528       0.00000000
Si      -1.28734983      -1.50935484       1.54523191       0.00000000
Si       1.88155106       0.57601440       3.08318718       0.00000000
Si      -2.52149652      -2.69987921      -0.07145581       0.00000000
Si      -2.51178768       0.14615388      -2.82726365       0.00000000
Si       0.20527029      -2.57107378      -2.82122853       0.00000000
Si      -2.60249040       2.80352529      -0.03996973       0.00000000
Si       2.92950305      -2.54823802       0.06683463       0.00000000
