10
Lattice="16.28999089631971 0.0 0.0 0.0 16.28999089631971 0.0 0.0 0.0 34.48637585096406" Properties=species:S:1:pos:R:3:initial_magmoms:R:1 pbc="T T T"
Si       0.72109314      -1.94752556       1.07073360       0.00000000
Si      -1.49972256       1.30968342       1.23740634       0.00000000
Si       1.88162532       1.42545645      -0.33034518       0.00000000
Si      -1.12697478      -1.03232499      -1.83967675       0.00000000
Si       0.69714684      -0.90868226      -3.36090612       0.00000000
Si       1.31202918       2.73732273      -2.19633505       0.00000000
Si      -1.42913799       3.45869280       0.23388673       0.00000000
Si       0.62824014      -3.67648100      -0.59923560       0.00000000
Si      -3.63196953       0.45455616       0.98334507       0.00000000
Si      -0.53929674      -2.23102043       3.04338988       0.00000000
