10
Lattice="16.28999089631971 0.0 0.0 0.0 16.28999089631971 0.0 0.0 0.0 34.48637585096406" Properties=species:S:1:pos:R:3:initial_magmoms:R:1 pbc="T T T"
Si       1.48239000       1.17473706       1.34667446       0.00000000
Si       1.66946436      -0.99924489      -1.37949029       0.00000000
Si      -1.03478967       1.43409015      -1.60213446       0.00000000
Si      -1.28314701      -1.42113797       1.44173965       0.00000000
Si       0.06849945      -1.01506248      -3.38377060       0.00000000
Si       0.96879888       3.07353204      -1.51753933       0.00000000
Si       2.43384003      -2.66940809       0.25226147       0.00000000
Si      -2.59573005       2.54558943      -0.24216347       0.00000000
Si       0.01399311       2.58945840       2.77068668       0.00000000
Si       3.07112668       2.29667823       0.08824890       0.00000000
