10
Lattice="16.28999089631971 0.0 0.0 0.0 16.28999089631971 0.0 0.0 0.0 34.48637585096406" Properties=species:S:1:pos:R:3:initial_magmoms:R:1 pbc="T T T"
Si       1.20573693       1.36524861      -1.46070027       0.00000000
Si      -1.27368252      -1.35874890      -1.51091246       0.00000000
Si       1.33604064      -1.31487993       1.50193769       0.00000000
Si      -1.36870209       1.37459907       1.52208809       0.00000000
Si      -0.65769246       2.91832092      -2.10114712       0.00000000
Si       2.29084641      -0.83080629      -2.78628833       0.00000000
Si       2.61703737       2.65048074       0.06381707       0.00000000
Si      -2.71399545      -2.65184910       0.06536206       0.00000000
Si       0.28725786      -2.47024818      -2.87088346       0.00000000
Si      -2.63907774       2.84063391       0.26142067       0.00000000
