10
Lattice="16.28999089631971 0.0 0.0 0.0 16.28999089631971 0.0 0.0 0.0 34.48637585096406" Properties=species:S:1:pos:R:3:initial_magmoms:R:1 pbc="T T T"
Si       1.35540945       1.35845568      -1.35655684       0.00000000
Si      -1.35848826      -1.35729909      -1.35624646       0.00000000
Si       1.35708673      -1.35759231       1.35755694       0.00000000
Si      -1.35816246       1.35739683       1.35762592       0.00000000
Si       0.00192222      -2.71357517      -2.71311368       0.00000000
Si       2.71439197      -0.00047241       2.71445865       0.00000000
Si       2.71425676      -2.71467963       0.00027589       0.00000000
Si       2.71408897       2.71524978      -0.00006897       0.00000000
Si      -0.00289962      -2.71459655       2.71501043       0.00000000
Si      -0.00299736       2.71541268       2.71476902       0.00000000
