10
Lattice="16.28999089631971 0.0 0.0 0.0 16.28999089631971 0.0 0.0 0.0 34.48637585096406" Properties=species:S:1:pos:R:3:initial_magmoms:R:1 pbc="T T T"
Si      -1.33683885      -1.33900542      -1.37376555       0.00000000
Si       1.37842722       1.37411037      -1.36679930       0.00000000
Si       1.17494883      -1.48515930       1.45349810       0.00000000
Si      -1.42754157       1.31836599       1.41352836       0.00000000
Si       2.13781230       0.29163987       2.69462897       0.00000000
Si       0.41361939       2.09732121       2.75753215       0.00000000
Si      -2.69241120      -2.69596405       0.01489812       0.00000000
Si      -2.69527824       0.01373247      -2.72887396       0.00000000
Si       0.01725111      -2.69848574      -2.72928780       0.00000000
Si       2.73084487      -2.70338740       0.01693282       0.00000000
