10
Lattice="16.28999089631971 0.0 0.0 0.0 16.28999089631971 0.0 0.0 0.0 34.48637585096406" Properties=species:S:1:pos:R:3:initial_magmoms:R:1 pbc="T T T"
Si      -0.82355724      -1.89985383       1.01286542       0.00000000
Si      -1.90485486       0.81034605      -1.06149124       0.00000000
Si       2.00819862      -0.60918084      -1.03800601       0.00000000
Si       0.42031458       1.43365032       1.81926080       0.00000000
Si       3.04592768       1.50371361      -1.24861442       0.00000000
Si      -1.39821957      -1.13832891       3.14840096       0.00000000
Si       2.90414277      -2.08010268       0.63965366       0.00000000
Si       0.96855453      -3.39481971       1.15525975       0.00000000
Si      -1.48465431       1.21503852       3.22637470       0.00000000
Si      -1.41517746       2.87932266      -1.99824519       0.00000000
