10
Lattice="16.28999089631971 0.0 0.0 0.0 16.28999089631971 0.0 0.0 0.0 34.48637585096406" Properties=species:S:1:pos:R:3:initial_magmoms:R:1 pbc="T T T"
Si      -1.83376530      -0.80210331      -1.23878580       0.00000000
Si      -1.21446837       0.50640723       2.00628052       0.00000000
Si       0.88961319       1.90825947      -1.19712623       0.00000000
Si       1.81831979      -1.69978005      -0.01848471       0.00000000
Si      -0.42885054      -2.03087430      -2.64683083       0.00000000
Si       0.26578764       2.10445623       2.77377525       0.00000000
Si       2.28833353       0.71373006      -2.65338324       0.00000000
Si      -3.16048806      -2.08394712       0.32103385       0.00000000
Si       0.88982496      -3.49967844      -1.25182166       0.00000000
Si       3.60685754      -0.63006462      -1.25851202       0.00000000
