10
Lattice="16.28999089631971 0.0 0.0 0.0 16.28999089631971 0.0 0.0 0.0 34.48637585096406" Properties=species:S:1:pos:R:3:initial_magmoms:R:1 pbc="T T T"
Si       2.26843137      -0.38599155       0.33975996       0.00000000
Si      -1.52430417       0.35181513       1.72807877       0.00000000
Si      -0.92654262      -1.90470825      -1.07104397       0.00000000
Si       0.40619115       1.75327641      -1.59758225       0.00000000
Si      -3.24229644       0.67996089       0.13801455       0.00000000
Si      -2.79270873       0.83267964      -2.20981923       0.00000000
Si       1.17292887      -3.22234119      -1.32148417       0.00000000
Si      -1.53982854      -0.83707794      -3.28282892       0.00000000
Si      -2.01398157      -1.71716148       2.66483272       0.00000000
Si      -1.59477471       2.92074813      -1.75804745       0.00000000
