10
Lattice="16.28999089631971 0.0 0.0 0.0 16.28999089631971 0.0 0.0 0.0 34.48637585096406" Properties=species:S:1:pos:R:3:initial_magmoms:R:1 pbc="T T T"
Si      -0.56492091      -2.15863677       0.59813204       0.00000000
Si      -1.84308318       0.62434683      -1.36304028       0.00000000
Si      -0.49032900       1.23996222       1.97903627       0.00000000
Si       2.13988928       0.02979441      -1.14291362       0.00000000
Si       2.90102976       2.06189046       0.95282461       0.00000000
Si       1.03423581       2.96855928       1.96844895       0.00000000
Si       1.05293673      -2.87008623       2.12967284       0.00000000
Si      -3.69199818       0.61853130       0.13480732       0.00000000
Si      -2.72165175       1.92432141       1.82729613       0.00000000
Si       2.06069219      -2.08857348      -2.46974319       0.00000000
