10
Lattice="16.28999089631971 0.0 0.0 0.0 16.28999089631971 0.0 0.0 0.0 34.48637585096406" Properties=species:S:1:pos:R:3:initial_magmoms:R:1 pbc="T T T"
Si       1.35754344       1.35724902      -1.35821219       0.00000000
Si      -1.35746199      -1.35759231      -1.35835013       0.00000000
Si      -1.35855342       1.35783817       1.35797078       0.00000000
Si       1.36042677      -1.35868374       1.35766040       0.00000000
Si       2.71267596       2.71516086      -0.00096562       0.00000000
Si      -2.71490769      -2.71336014      -0.00082767       0.00000000
Si      -2.71531494       2.71411178      -0.00100011       0.00000000
Si       2.71373481      -2.71575477      -0.00031038       0.00000000
Si      -0.00105885       2.71470962      -2.71497594       0.00000000
Si      -2.71523349       0.00118917      -2.71535529       0.00000000
