10
Lattice="16.28999089631971 0.0 0.0 0.0 16.28999089631971 0.0 0.0 0.0 34.48637585096406" Properties=species:S:1:pos:R:3:initial_magmoms:R:1 pbc="T T T"
Si      -0.22056660      -2.16332829       0.81922432       0.00000000
Si      -2.15469459       0.35359074      -0.91106159       0.00000000
Si       0.09285300       1.72895544       1.66996920       0.00000000
Si       1.92329514       0.13351284      -1.43915175       0.00000000
Si      -1.75521492       2.64415600      -1.24044115       0.00000000
Si      -0.77789637      -3.50063955      -1.03710936       0.00000000
Si      -0.62824014       3.67648100       0.59923560       0.00000000
Si      -2.06948160      -2.16914382       2.31707192       0.00000000
Si       2.31990777       2.43343508      -1.95789611       0.00000000
Si       1.62251658      -2.78767512       2.18226460       0.00000000
