10
Lattice="16.28999089631971 0.0 0.0 0.0 16.28999089631971 0.0 0.0 0.0 34.48637585096406" Properties=species:S:1:pos:R:3:initial_magmoms:R:1 pbc="T T T"
Si      -0.10955025       1.63549971       1.64386300       0.00000000
Si      -2.04511176      -1.12422177      -0.07180067       0.00000000
Si       0.06552149       1.19524617      -2.03869773       0.00000000
Si       2.02338809      -1.18949580       0.34176018       0.00000000
Si       2.84305202      -0.65446704      -1.78036015       0.00000000
Si       2.35391219       1.66693941      -2.15295116       0.00000000
Si      -1.86639417      -2.34041688      -2.17485002       0.00000000
Si      -3.63108987       0.60921342       0.48998270       0.00000000
Si      -2.41960257       2.08176426       1.90592511       0.00000000
Si       1.49586250      -3.38300946       1.06873338       0.00000000
