10
Lattice="16.28999089631971 0.0 0.0 0.0 16.28999089631971 0.0 0.0 0.0 34.48637585096406" Properties=species:S:1:pos:R:3:initial_magmoms:R:1 pbc="T T T"
Si      -1.12622544       0.91870713      -1.82826175       0.00000000
Si       1.21148730       1.47255084       1.41594241       0.00000000
Si       1.58597811      -1.73343519      -0.56178338       0.00000000
Si      -1.63857852      -0.93359619       1.66531353       0.00000000
Si       1.29458259      -2.91732723       1.54047278       0.00000000
Si      -1.89656325      -1.11930219      -2.85326639       0.00000000
Si       3.63108987      -0.60921342      -0.48998270       0.00000000
Si      -2.30995458      -2.94036129       0.44549525       0.00000000
Si       3.52153962       1.02628629       1.15388029       0.00000000
Si       0.21380625       2.21276748      -3.29500262       0.00000000
