10
Lattice="16.28999089631971 0.0 0.0 0.0 16.28999089631971 0.0 0.0 0.0 34.48637585096406" Properties=species:S:1:pos:R:3:initial_magmoms:R:1 pbc="T T T"
Si      -0.95904117       1.72193445      -1.29186036       0.00000000
Si      -0.15162732       0.74262852       2.26510092       0.00000000
Si      -1.12648608      -2.05174179       0.55088568       0.00000000
Si       2.12232636       0.41718690      -1.11670396       0.00000000
Si       1.12454757      -1.17566559       2.86819900       0.00000000
Si      -0.95781942       0.39056904      -3.26762042       0.00000000
Si       0.64252647       3.39162687      -0.65541394       0.00000000
Si      -3.21445357      -1.00737360       1.11556591       0.00000000
Si       2.64530052       2.37957804       0.26430373       0.00000000
Si      -2.42257224       0.36575937       2.87882081       0.00000000
