10
Lattice="16.28999089631971 0.0 0.0 0.0 16.28999089631971 0.0 0.0 0.0 34.48637585096406" Properties=species:S:1:pos:R:3:initial_magmoms:R:1 pbc="T T T"
Si      -1.84262217       1.40059791       0.28923740       0.00000000
Si       1.01361267       0.25602993       2.10191130       0.00000000
Si       1.27941660       1.11651660      -1.65141552       0.00000000
Si       0.46333647      -2.10255030      -1.02966030       0.00000000
Si       1.77406245      -1.00175355      -2.74363414       0.00000000
Si       1.18092726      -1.99300005       2.73104660       0.00000000
Si      -0.91424367       2.92113909       1.89216504       0.00000000
Si       1.95510951      -3.00700531       0.70576408       0.00000000
Si       2.81587311       1.81325619       1.56330278       0.00000000
Si       0.00324171       3.03481071      -2.25451359       0.00000000
