10
Lattice="16.28999089631971 0.0 0.0 0.0 16.28999089631971 0.0 0.0 0.0 34.48637585096406" Properties=species:S:1:pos:R:3:initial_magmoms:R:1 pbc="T T T"
Si      -0.80940123       1.28541132      -1.77987734       0.00000000
Si      -1.76188079      -1.03464306       1.18850464       0.00000000
Si       1.11845511      -1.37969784      -1.57013108       0.00000000
Si       1.87082505       0.90326421       1.16129487       0.00000000
Si       1.31411430       2.19585942      -2.30582935       0.00000000
Si       2.92071555       0.17752842      -2.10873960       0.00000000
Si       2.81857725      -1.09431333       2.15098544       0.00000000
Si      -1.73777973      -0.23512986      -3.38280498       0.00000000
Si      -2.25915259       3.00130218      -1.10997911       0.00000000
Si      -0.45608742       3.08019465       2.40287407       0.00000000
