10
Lattice="16.28999089631971 0.0 0.0 0.0 16.28999089631971 0.0 0.0 0.0 34.48637585096406" Properties=species:S:1:pos:R:3:initial_magmoms:R:1 pbc="T T T"
Si       0.80940123      -1.28541132       1.77987734       0.00000000
Si      -1.44975136       1.71589086       0.66989823       0.00000000
Si       2.12351553       0.91044810      -0.52595201       0.00000000
Si      -0.92837850      -1.52054118      -1.60292765       0.00000000
Si       1.92785634      -2.66510916       0.20974626       0.00000000
Si       0.91424367      -2.92113909      -1.89216504       0.00000000
Si      -1.35345954      -0.26319753      -3.53295875       0.00000000
Si       2.57162085       2.53822635       1.18033136       0.00000000
Si      -3.31845938       0.78750747       1.80536278       0.00000000
Si       2.04364566       1.72247202      -2.79939864       0.00000000
