10
Lattice="16.28999089631971 0.0 0.0 0.0 16.28999089631971 0.0 0.0 0.0 34.48637585096406" Properties=species:S:1:pos:R:3:initial_magmoms:R:1 pbc="T T T"
Si      -2.11449480       0.89593371      -0.40569795       0.00000000
Si       1.76188079       1.03464306      -1.18850464       0.00000000
Si      -0.40471690      -2.06189046       1.17408932       0.00000000
Si      -1.07606690       0.15946281       3.38890729       0.00000000
Si      -2.96053224      -0.55350162      -2.08749598       0.00000000
Si      -3.17839470       0.93631662       1.78311906       0.00000000
Si      -0.67489633      -3.73198036      -0.50563953       0.00000000
Si       0.95247956       2.32005438      -2.96838197       0.00000000
Si       0.63174575      -1.79779698       3.39150963       0.00000000
Si       2.88033590      -0.34505478      -2.75863572       0.00000000
