10
Lattice="16.28999089631971 0.0 0.0 0.0 16.28999089631971 0.0 0.0 0.0 34.48637585096406" Properties=species:S:1:pos:R:3:initial_magmoms:R:1 pbc="T T T"
Si       1.34371323       1.33045317       1.38101804       0.00000000
Si       1.47976731      -1.26169308      -1.36135045       0.00000000
Si      -1.37147302      -1.38409614       1.36994791       0.00000000
Si      -1.23146861       1.38546450      -1.58942277       0.00000000
Si      -0.49663323      -2.02790952      -2.51860799       0.00000000
Si      -2.36663726      -0.55478853      -2.65066364       0.00000000
Si       2.68828983       2.69079849      -0.00627997       0.00000000
Si      -2.71144711       2.67410124       0.00043453       0.00000000
Si      -0.01016496       2.68698663       2.73595402       0.00000000
Si       2.70185940      -0.02583594       2.73688515       0.00000000
