10
Lattice="16.28999089631971 0.0 0.0 0.0 16.28999089631971 0.0 0.0 0.0 34.48637585096406" Properties=species:S:1:pos:R:3:initial_magmoms:R:1 pbc="T T T"
Si       1.28229993      -1.11478986      -1.67814247       0.00000000
Si      -0.13414815      -1.98869949       1.36504049       0.00000000
Si       0.84074319       1.58882886       1.69379930       0.00000000
Si      -1.64122890       1.32683679      -1.38852573       0.00000000
Si      -2.36113450      -1.34587980       2.19185181       0.00000000
Si      -0.54850059      -2.36959227      -2.77436151       0.00000000
Si       2.41271190       0.54292941      -2.90916883       0.00000000
Si       2.59232544       2.90263365       0.69793566       0.00000000
Si       1.61960067       0.30529089       3.60341445       0.00000000
Si      -3.24956897       2.37459330      -0.03631417       0.00000000
