10
Lattice="16.28999089631971 0.0 0.0 0.0 16.28999089631971 0.0 0.0 0.0 34.48637585096406" Properties=species:S:1:pos:R:3:initial_magmoms:R:1 pbc="T T T"
Si      -1.35681202       1.35366642      -1.36338514       0.00000000
Si       1.35962856      -1.36024595      -1.36148839       0.00000000
Si       1.35700587       1.35630540       1.38483568       0.00000000
Si      -1.36050985      -1.36535938       1.38338725       0.00000000
Si      -2.71292750       2.71213839      -0.00034486       0.00000000
Si       2.71538010       2.71063971      -0.00075870       0.00000000
Si      -2.71113560      -2.71820506      -0.00127600       0.00000000
Si       0.00074934       2.71166598      -2.72025236       0.00000000
Si       2.71386513      -2.71929102      -0.00341415       0.00000000
Si      -2.71411726      -0.00345348      -2.72028685       0.00000000
