10
Lattice="10.86 0.0 0.0 0.0 10.86 0.0 0.0 0.0 10.86" Properties=species:S:1:pos:R:3:initial_magmoms:R:1 pbc="T T T"
Si       1.18442418      -1.18442418      -1.25436258       0.00000000
Si      -1.50821508       1.50821508      -1.17528006       0.00000000
Si       2.55027552      -2.55027552       0.00985002       0.00000000
Si       2.55027552       0.16472448      -2.70514998       0.00000000
Si      -0.16472448      -2.55027552      -2.70514998       0.00000000
Si       2.55027552       0.16472448       2.72485002       0.00000000
Si      -0.16472448      -2.55027552       2.72485002       0.00000000
Si       2.55027552       2.87972448       0.00985002       0.00000000
Si      -2.87972448      -2.55027552       0.00985002       0.00000000
Si      -0.16472448       2.87972448      -2.70514998       0.00000000
