10
Lattice="16.28999089631971 0.0 0.0 0.0 16.28999089631971 0.0 0.0 0.0 34.64500226677339" Properties=species:S:1:pos:R:3:initial_magmoms:R:1 pbc="T T T"
Si       1.63042537      -0.54092574       1.61057777       0.00000000
Si      -0.87446936       2.02574295       0.82777350       0.00000000
Si       0.97856473       1.12728429      -1.83507751       0.00000000
Si      -1.10652987      -2.12063220      -0.12711258       0.00000000
Si       1.13421569       2.95028190       1.55060723       0.00000000
Si       2.27164864       2.63629215      -0.54080879       0.00000000
Si      -2.60975478       1.10697066       2.09269789       0.00000000
Si      -1.08543432      -2.56243329      -2.40568101       0.00000000
Si      -3.59047794       0.92126466      -0.22110453       0.00000000
Si      -2.59936176       1.19910690      -2.38184524       0.00000000
