10
Lattice="16.28999089631971 0.0 0.0 0.0 16.28999089631971 0.0 0.0 0.0 34.64500226677339" Properties=species:S:1:pos:R:3:initial_magmoms:R:1 pbc="T T T"
Si       1.58785146      -1.33817463      -1.05771251       0.00000000
Si      -1.63042537       0.54092574      -1.61057777       0.00000000
Si       0.84400119       1.95854670       1.02646270       0.00000000
Si      -0.57476007      -1.38531789       1.83428067       0.00000000
Si       1.05875226      -0.47084616       3.32980232       0.00000000
Si      -0.49620969       3.49120764      -0.05997053       0.00000000
Si      -2.73695525      -1.57970646      -1.73769035       0.00000000
Si      -2.50489474       2.56666869      -0.78280426       0.00000000
Si       2.55902868      -2.62881504       0.62804495       0.00000000
Si       3.08447892       0.05087367      -2.14452684       0.00000000
