10
Lattice="16.28999089631971 0.0 0.0 0.0 16.28999089631971 0.0 0.0 0.0 34.64500226677339" Properties=species:S:1:pos:R:3:initial_magmoms:R:1 pbc="T T T"
Si      -1.30349322       1.93473072       0.29902118       0.00000000
Si       0.15315858      -1.04350482       2.17588058       0.00000000
Si      -1.49770260      -1.06187994      -1.60590069       0.00000000
Si       2.34644418       0.38649654      -0.62205136       0.00000000
Si       2.10608523       0.07424982       2.81445762       0.00000000
Si      -1.02802932       2.99817450      -1.85520626       0.00000000
Si      -3.43880923       0.92737341       0.90087450       0.00000000
Si      -0.07411950       3.34399491       1.69635884       0.00000000
Si       2.61288342      -1.04060520      -2.48668107       0.00000000
Si      -1.70816940      -3.25732301      -0.89210931       0.00000000
