10
Lattice="16.28999089631971 0.0 0.0 0.0 16.28999089631971 0.0 0.0 0.0 34.64500226677339" Properties=species:S:1:pos:R:3:initial_magmoms:R:1 pbc="T T T"
Si      -1.61541414      -1.13629266      -1.24889483       0.00000000
Si       1.33477002      -1.36614456       1.38174047       0.00000000
Si      -1.37924172       1.37964897       1.36698862       0.00000000
Si       1.93214061       0.57578634      -1.31767567       0.00000000
Si      -1.76575455       1.08401805      -3.17075538       0.00000000
Si       2.73274524      -2.63401807      -0.15044601       0.00000000
Si      -2.74321971      -2.67393834       0.10211274       0.00000000
Si       2.68938126       0.00374670       2.75629556       0.00000000
Si       2.84788296       2.58896970      -0.33353109       0.00000000
Si      -0.02648754       2.71762812       2.75016339       0.00000000
