10
Lattice="16.28999089631971 0.0 0.0 0.0 16.28999089631971 0.0 0.0 0.0 34.64500226677339" Properties=species:S:1:pos:R:3:initial_magmoms:R:1 pbc="T T T"
Si       1.35646178       1.35663120      -1.35860452       0.00000000
Si      -1.35842814       1.35668007       1.35811949       0.00000000
Si      -1.35832448      -1.35840681      -1.35933207       0.00000000
Si       1.35525632      -1.36024758       1.36057929       0.00000000
Si      -2.70726509      -0.00185706       2.71949562       0.00000000
Si      -2.71334126      -2.71406713      -0.00200941       0.00000000
Si      -0.00129343       2.71443528      -2.71634292       0.00000000
Si       2.71459166      -0.00144981      -2.71634292       0.00000000
Si       2.71631840       2.71505430      -0.00239051       0.00000000
Si      -0.00057504      -2.71568309      -2.71596183       0.00000000
