10
Lattice="16.28999089631971 0.0 0.0 0.0 16.28999089631971 0.0 0.0 0.0 34.64500226677339" Properties=species:S:1:pos:R:3:initial_magmoms:R:1 pbc="T T T"
Si       1.33924977       1.35319401       1.38038238       0.00000000
Si      -1.37179719      -1.35830907       1.38325792       0.00000000
Si       1.50482133      -1.24527276      -1.42876416       0.00000000
Si      -1.21329549       1.22691393      -1.70656873       0.00000000
Si      -2.12903784      -0.78626943      -2.69071331       0.00000000
Si      -0.15785010      -2.25191331      -2.76175704       0.00000000
Si       0.71130285       2.33017047      -2.90033713       0.00000000
Si      -2.71924083       2.71086777      -0.02952795       0.00000000
Si       2.70311373      -0.00215028       2.74141206       0.00000000
Si       2.72640843      -2.71999017      -0.00161792       0.00000000
