10
Lattice="16.28999089631971 0.0 0.0 0.0 16.28999089631971 0.0 0.0 0.0 34.64500226677339" Properties=species:S:1:pos:R:3:initial_magmoms:R:1 pbc="T T T"
Si       1.33073010       0.12877245       1.99046043       0.00000000
Si       1.31751891      -0.55798137      -1.93263789       0.00000000
Si      -0.61186869       2.30567031      -0.34752421       0.00000000
Si      -1.84652037      -1.59503535       0.20696936       0.00000000
Si      -0.08358399       0.47631960      -3.51636576       0.00000000
Si      -1.45468071      -2.24415927       2.53826751       0.00000000
Si       0.76002624      -1.76414184       3.20774791       0.00000000
Si      -1.04283693       2.47026447      -2.64258367       0.00000000
Si       3.45906747       0.47366433      -1.84415450       0.00000000
Si       1.34920296       3.72114099      -0.15243810       0.00000000
