10
Lattice="16.28999089631971 0.0 0.0 0.0 16.28999089631971 0.0 0.0 0.0 34.64500226677339" Properties=species:S:1:pos:R:3:initial_magmoms:R:1 pbc="T T T"
Si      -1.99660014       1.07826768       0.49739858       0.00000000
Si      -0.76090590      -1.86222393      -1.19178874       0.00000000
Si       1.37907882       1.27674504      -1.41760499       0.00000000
Si       0.84473424      -0.47864907       2.19576683       0.00000000
Si       3.32662977       0.66241656      -0.32309947       0.00000000
Si       2.69456148       0.92157417       1.91361777       0.00000000
Si      -3.23960859      -0.81042750       1.18021731       0.00000000
Si      -2.28035565      -2.80437237       0.30643522       0.00000000
Si       1.26229581      -2.80702764       1.97864648       0.00000000
Si      -1.43220051       2.41367301       2.35894488       0.00000000
