10
Lattice="16.28999089631971 0.0 0.0 0.0 16.28999089631971 0.0 0.0 0.0 34.64500226677339" Properties=species:S:1:pos:R:3:initial_magmoms:R:1 pbc="T T T"
Si       1.69230294      -0.91909809      -1.47459606       0.00000000
Si      -1.96107165      -1.41547068      -0.19508612       0.00000000
Si      -0.58463181       1.97322399      -1.31141800       0.00000000
Si       0.45594081       0.22367799       2.50393429       0.00000000
Si      -1.14903144       0.63781866      -3.17296431       0.00000000
Si      -2.39203989      -1.25087652      -2.49014557       0.00000000
Si       0.84756870      -0.44044902      -3.67036288       0.00000000
Si      -1.03101039       2.02435830       3.08330299       0.00000000
Si      -2.64930786       2.79578754      -0.47120694       0.00000000
Si      -3.66696045      -0.48863484       1.24912625       0.00000000
