10
Lattice="16.28999089631971 0.0 0.0 0.0 16.28999089631971 0.0 0.0 0.0 34.64500226677339" Properties=species:S:1:pos:R:3:initial_magmoms:R:1 pbc="T T T"
Si      -1.33250571      -1.33364601      -1.38356280       0.00000000
Si       1.36104579      -1.35026181       1.35811949       0.00000000
Si      -1.35408996       1.36432008       1.35895097       0.00000000
Si       1.36479249       1.37499862      -1.39466306       0.00000000
Si       0.00219915      -2.70940167       2.71509570       0.00000000
Si      -2.71336014      -2.71342530      -0.00187083       0.00000000
Si      -2.71248048       0.00503361       2.71544215       0.00000000
Si       2.71857294      -2.70948312      -0.00523140       0.00000000
Si      -2.71011843       2.72077439       0.00006929       0.00000000
Si       2.71345788       2.71888964      -0.00311805       0.00000000
