10
Lattice="16.28999089631971 0.0 0.0 0.0 16.28999089631971 0.0 0.0 0.0 34.64500226677339" Properties=species:S:1:pos:R:3:initial_magmoms:R:1 pbc="T T T"
Si      -2.32067340       0.02456532      -0.26302500       0.00000000
Si       0.84012417       2.10497751      -0.56488708       0.00000000
Si       0.37877508       0.03984534       2.39019469       0.00000000
Si       0.38827215      -1.30750056      -2.02164095       0.00000000
Si       2.66304033       1.41128415      -1.88531279       0.00000000
Si       0.07579737       2.39021541       2.88932551       0.00000000
Si      -3.05927829      -2.17191312       0.17804077       0.00000000
Si       1.71452250       3.11437107       1.38496938       0.00000000
Si      -2.98506105       0.45043479      -2.44995735       0.00000000
Si      -1.11785238      -1.34920296       3.47700902       0.00000000
