10
Lattice="16.28999089631971 0.0 0.0 0.0 16.28999089631971 0.0 0.0 0.0 34.64500226677339" Properties=species:S:1:pos:R:3:initial_magmoms:R:1 pbc="T T T"
Si       1.34866539       1.34389102       1.39154501       0.00000000
Si      -1.36479249      -1.37499862       1.39466306       0.00000000
Si       1.58443056      -1.19553169      -1.38398893       0.00000000
Si      -1.32041853       1.42489467      -1.51135096       0.00000000
Si      -2.69729820      -2.70864463       0.01110026       0.00000000
Si      -2.71839375       2.69276818       0.02083552       0.00000000
Si       2.71922454      -2.71429726       0.02977740       0.00000000
Si       2.73442311       2.70097834       0.01051476       0.00000000
Si      -0.00425169       2.70472504       2.75257468       0.00000000
Si       2.71238274      -0.01204690       2.75260933       0.00000000
