10
Lattice="16.28999089631971 0.0 0.0 0.0 16.28999089631971 0.0 0.0 0.0 34.64500226677339" Properties=species:S:1:pos:R:3:initial_magmoms:R:1 pbc="T T T"
Si      -1.35291708       1.36083402       1.36102967       0.00000000
Si       1.36371735      -1.35593792       1.36106432       0.00000000
Si      -1.34866539      -1.34389102      -1.39154501       0.00000000
Si       1.38575772       1.35708732      -1.38103025       0.00000000
Si       0.23576517      -2.53942271      -2.77553394       0.00000000
Si      -2.71174743       0.00175606       2.71869878       0.00000000
Si      -2.71244790       2.71876842       0.00384560       0.00000000
Si       2.71660185      -2.71524068       0.00291018       0.00000000
Si      -2.71345788      -2.71888964       0.00311805       0.00000000
Si       0.00394218      -2.71405151       2.71845627       0.00000000
