10
Lattice="16.28999089631971 0.0 0.0 0.0 16.28999089631971 0.0 0.0 0.0 34.64500226677339" Properties=species:S:1:pos:R:3:initial_magmoms:R:1 pbc="T T T"
Si       1.36546038       1.33782765      -1.37558058       0.00000000
Si       1.38655593      -1.33137030       1.37038383       0.00000000
Si      -1.35505107      -1.37526274      -1.37700103       0.00000000
Si      -1.23044886       1.55446836       1.47088904       0.00000000
Si      -2.69138493      -2.71259029      -0.00436527       0.00000000
Si      -2.69594613       2.71540779       0.00128187       0.00000000
Si       2.73228912       2.69541996      -0.01420446       0.00000000
Si       0.01057221       2.69836845      -2.73529375       0.00000000
Si      -2.70440064      -0.01866671      -2.73539768       0.00000000
Si       2.72621295      -0.01679010      -2.73570949       0.00000000
