10
Lattice="16.28999089631971 0.0 0.0 0.0 16.28999089631971 0.0 0.0 0.0 34.64500226677339" Properties=species:S:1:pos:R:3:initial_magmoms:R:1 pbc="T T T"
Si      -1.46549727       1.16093943      -1.46960717       0.00000000
Si       1.23044886      -1.55446836      -1.47088904       0.00000000
Si      -1.88911872      -0.90077184       1.33864899       0.00000000
Si       1.15048125       1.77425793       1.30521654       0.00000000
Si      -0.12452076       2.50033581      -2.84802865       0.00000000
Si      -2.81142594       2.57386887      -0.05924299       0.00000000
Si       2.75758749       2.65538403      -0.11134910       0.00000000
Si       2.59590924      -0.21664071      -2.84646962       0.00000000
Si       2.61700479      -2.88583866      -0.10050521       0.00000000
Si      -2.77102674      -2.86037853      -0.01856973       0.00000000
