10
Lattice="16.28999089631971 0.0 0.0 0.0 16.28999089631971 0.0 0.0 0.0 34.64500226677339" Properties=species:S:1:pos:R:3:initial_magmoms:R:1 pbc="T T T"
Si      -1.35045729       1.36021500       1.36019819       0.00000000
Si      -1.33924977      -1.35319401      -1.38038238       0.00000000
Si       1.36386396      -1.35534429       1.36102967       0.00000000
Si       1.37684709       1.37863899      -1.37423289       0.00000000
Si       0.16557156      -2.59846677      -2.80914654       0.00000000
Si      -2.71104696      -2.71150308       0.00287554       0.00000000
Si      -2.70946683       0.00091224       2.71696653       0.00000000
Si      -2.71096551       2.71661814      -0.00353379       0.00000000
Si       0.00452862      -2.71324611       2.71776337       0.00000000
Si       2.71746522       2.71529865      -0.00083148       0.00000000
