10
Lattice="16.28999089631971 0.0 0.0 0.0 16.28999089631971 0.0 0.0 0.0 34.64500226677339" Properties=species:S:1:pos:R:3:initial_magmoms:R:1 pbc="T T T"
Si       0.51772878      -0.89966412       2.13188141       0.00000000
Si       1.53549540       1.79859519      -0.24740010       0.00000000
Si       0.23151348      -1.54707759      -1.79409245       0.00000000
Si      -2.40492528       0.50243247       0.20004035       0.00000000
Si      -1.32028821      -2.40868827       2.41066989       0.00000000
Si       0.00778662       1.27830888       3.43993884       0.00000000
Si       1.48271580       2.76640038       1.98159130       0.00000000
Si      -1.24214508      -0.83530233      -3.56867974       0.00000000
Si      -0.37602207      -3.77495012      -1.00810084       0.00000000
Si       0.77159214       3.38779872      -1.86951466       0.00000000
