10
Lattice="16.28999089631971 0.0 0.0 0.0 16.28999089631971 0.0 0.0 0.0 34.64500226677339" Properties=species:S:1:pos:R:3:initial_magmoms:R:1 pbc="T T T"
Si       0.72114201       1.80729405       1.43705614       0.00000000
Si       0.14188590       1.35931905      -2.10319533       0.00000000
Si      -1.92459834      -1.10325654       1.19376840       0.00000000
Si       1.89690534      -1.83471012      -0.02279642       0.00000000
Si       1.13959953      -0.70330446      -3.07090007       0.00000000
Si       2.00479401       0.40166253       2.90648662       0.00000000
Si      -0.71130285      -2.33017047       2.90033713       0.00000000
Si      -3.31833816      -0.16309548      -1.83254842       0.00000000
Si       3.47004693      -0.88208721       1.52293075       0.00000000
Si       0.79351848      -3.57544323       1.47157297       0.00000000
