10
Lattice="16.28999089631971 0.0 0.0 0.0 16.28999089631971 0.0 0.0 0.0 34.64500226677339" Properties=species:S:1:pos:R:3:initial_magmoms:R:1 pbc="T T T"
Si      -1.35426915      -1.35531171       1.35628331       0.00000000
Si       1.35713619      -1.35708732      -1.35759982       0.00000000
Si      -1.35752715       1.35764118      -1.35784233       0.00000000
Si       1.36018242       1.36042677       1.35704550       0.00000000
Si       2.71138905      -0.00050499       2.71651615       0.00000000
Si      -2.71301805       0.00149868      -2.71492247       0.00000000
Si       0.00130320      -2.71406061      -2.71409099       0.00000000
Si      -2.71471221      -2.71472850      -0.00017323       0.00000000
Si      -0.00619020      -2.71414206       2.71530357       0.00000000
Si       2.71608057       0.00169416      -2.71350203       0.00000000
