10
Lattice="16.28999089631971 0.0 0.0 0.0 16.28999089631971 0.0 0.0 0.0 34.64500226677339" Properties=species:S:1:pos:R:3:initial_magmoms:R:1 pbc="T T T"
Si       1.35490446       1.35464382      -1.35725337       0.00000000
Si       1.35120663      -1.36093176       1.35947065       0.00000000
Si      -1.36018242      -1.36042677      -1.35704550       0.00000000
Si      -1.36547667       1.35690813       1.35687227       0.00000000
Si       2.71212210       2.71251306       0.00027716       0.00000000
Si      -0.00327429       2.71275741      -2.71443744       0.00000000
Si       2.71267596      -0.00312768      -2.71478389       0.00000000
Si      -2.71518462       2.71248048      -0.00020787       0.00000000
Si       2.71316466      -2.71500543       0.00138580       0.00000000
Si      -2.71445157      -2.71573848      -0.00076219       0.00000000
