10
Lattice="16.28999089631971 0.0 0.0 0.0 16.28999089631971 0.0 0.0 0.0 34.64500226677339" Properties=species:S:1:pos:R:3:initial_magmoms:R:1 pbc="T T T"
Si       1.77834672       0.29763459       1.50802850       0.00000000
Si       0.44238753      -2.00227625      -1.18063305       0.00000000
Si      -0.15081934       1.86843042      -1.47906526       0.00000000
Si      -2.13860726      -0.33117407       1.02490367       0.00000000
Si       3.44114847      -0.10244781      -0.20405918       0.00000000
Si      -0.42423558       0.68339808      -3.51660828       0.00000000
Si      -2.18672792       2.83620303      -0.64706507       0.00000000
Si      -3.59299475       0.84843207      -0.41428517       0.00000000
Si      -1.76058152       0.42793830       3.28129929       0.00000000
Si      -1.56629752      -2.92681520      -1.90346678       0.00000000
