10
Lattice="16.28999089631971 0.0 0.0 0.0 16.28999089631971 0.0 0.0 0.0 34.64500226677339" Properties=species:S:1:pos:R:3:initial_magmoms:R:1 pbc="T T T"
Si      -0.69113583       1.45829709      -1.65897686       0.00000000
Si       1.95387147      -1.10258865      -0.67796843       0.00000000
Si       0.22551876       1.31541750       1.97081670       0.00000000
Si      -1.36303317      -2.01639249      -0.06475155       0.00000000
Si      -1.01589327      -0.05660775       3.42906031       0.00000000
Si       1.25470467       2.78516646      -2.03664224       0.00000000
Si       3.48920397       0.54968976      -1.15634689       0.00000000
Si       1.23588972      -2.78839188      -2.20858548       0.00000000
Si       2.88173358      -2.26110087       1.08494350       0.00000000
Si       2.51496423       1.41038820       2.56068284       0.00000000
