10
Lattice="16.28999089631971 0.0 0.0 0.0 16.28999089631971 0.0 0.0 0.0 34.64500226677339" Properties=species:S:1:pos:R:3:initial_magmoms:R:1 pbc="T T T"
Si       0.05859513       1.12145247      -2.01436549       0.00000000
Si      -1.58257350      -1.68353892       0.39294384       0.00000000
Si      -0.73461384       1.63250235       1.59439854       0.00000000
Si       2.29226364      -0.73129068       0.30061485       0.00000000
Si       0.68732397       0.55022733       3.18242240       0.00000000
Si       2.68643277       0.82823247       2.00483811       0.00000000
Si       1.60425549       2.82331764      -1.24628536       0.00000000
Si       0.07382628      -0.65739924      -3.66114731       0.00000000
Si      -2.21464179      -1.42438131       2.62966108       0.00000000
Si      -3.53012445      -1.06921044      -0.70156169       0.00000000
