10
Lattice="16.28999089631971 0.0 0.0 0.0 16.28999089631971 0.0 0.0 0.0 34.64500226677339" Properties=species:S:1:pos:R:3:initial_magmoms:R:1 pbc="T T T"
Si       1.49911983      -1.76972931       0.41189466       0.00000000
Si      -1.94593824      -0.25862004       1.39272987       0.00000000
Si       1.34040636       1.98912303      -0.21909512       0.00000000
Si      -0.77704929      -1.20314682      -2.24340373       0.00000000
Si       0.48321027      -2.57792508       2.35392135       0.00000000
Si      -1.80623520      -2.67289578       1.76405521       0.00000000
Si      -1.24976880       0.72524709       3.39067362       0.00000000
Si      -3.68670393       0.86291388       0.18043127       0.00000000
Si       3.47205060      -0.88049079       1.33525378       0.00000000
Si       1.61450190       3.02743134       1.87256342       0.00000000
