10
Lattice="16.28999089631971 0.0 0.0 0.0 16.28999089631971 0.0 0.0 0.0 34.64500226677339" Properties=species:S:1:pos:R:3:initial_magmoms:R:1 pbc="T T T"
Si       1.64757060       1.26791260       1.06931859       0.00000000
Si      -1.38655593       1.33137030      -1.37038383       0.00000000
Si      -1.16768349      -1.21180400       1.68146148       0.00000000
Si       1.35425286      -1.40330924      -1.36626107       0.00000000
Si      -2.59893918      -2.52005390       0.11211129       0.00000000
Si      -0.02109555       2.66919795      -2.74596441       0.00000000
Si       2.69270827      -0.04407984      -2.74728093       0.00000000
Si      -2.74160700      -0.04389245      -2.74738486       0.00000000
Si      -0.02021589      -2.76088526      -2.74679589       0.00000000
Si      -2.61700479       2.88583866       0.10050521       0.00000000
