10
Lattice="16.28999089631971 0.0 0.0 0.0 16.28999089631971 0.0 0.0 0.0 34.64500226677339" Properties=species:S:1:pos:R:3:initial_magmoms:R:1 pbc="T T T"
Si       1.25862146       1.56224684      -1.10860605       0.00000000
Si      -0.06691932       1.15486652       1.98772347       0.00000000
Si      -1.64757060      -1.26791260      -1.06931859       0.00000000
Si       2.41742690       0.03300354      -2.45130851       0.00000000
Si      -0.29331774      -2.67122184      -2.43557967       0.00000000
Si      -0.30183741       2.75887766      -2.45390688       0.00000000
Si      -2.81525409      -2.47971660       0.61214289       0.00000000
Si      -2.11856337       0.98553197       3.02004118       0.00000000
Si       3.21456176       2.06101406       0.45423088       0.00000000
Si      -3.03412653       0.06345770      -2.43970242       0.00000000
