10
Lattice="16.28999089631971 0.0 0.0 0.0 16.28999089631971 0.0 0.0 0.0 34.64500226677339" Properties=species:S:1:pos:R:3:initial_magmoms:R:1 pbc="T T T"
Si      -0.16039134      -0.00706986      -2.31802911       0.00000000
Si      -1.99039365       0.85740786       1.00761581       0.00000000
Si       1.30096827       1.94393457       0.63220235       0.00000000
Si      -0.11106522      -2.45881979       0.47706195       0.00000000
Si      -1.12736574       0.93432924       3.23730011       0.00000000
Si      -3.55718214      -0.88537942       0.71392996       0.00000000
Si      -2.15034516      -2.58562115       1.68703933       0.00000000
Si       1.05345801       3.38010984      -1.29873793       0.00000000
Si      -1.55535291      -1.85231146      -2.97226570       0.00000000
Si       1.89125271       0.16226469      -3.35034682       0.00000000
