10
Lattice="16.28999089631971 0.0 0.0 0.0 16.28999089631971 0.0 0.0 0.0 34.64500226677339" Properties=species:S:1:pos:R:3:initial_magmoms:R:1 pbc="T T T"
Si       1.61558423       0.92161978       1.43571191       0.00000000
Si      -0.99976617      -1.67654466       1.34984769       0.00000000
Si       1.60979150      -0.48950865      -1.73866041       0.00000000
Si      -1.66074921       1.84408990      -0.08179690       0.00000000
Si      -1.24595694      -2.39063310      -2.31892988       0.00000000
Si       0.26268179       2.25896362       2.74242858       0.00000000
Si      -2.66123214      -2.54206494      -0.09915405       0.00000000
Si       2.74338980       2.45926546       0.08470435       0.00000000
Si      -2.44472175      -0.46621395       2.74254638       0.00000000
Si      -3.53105298       1.04521690       1.30866169       0.00000000
