10
Lattice="16.28999089631971 0.0 0.0 0.0 16.28999089631971 0.0 0.0 0.0 34.64500226677339" Properties=species:S:1:pos:R:3:initial_magmoms:R:1 pbc="T T T"
Si       1.35563294       1.35684297       1.35662976       0.00000000
Si       1.35342565      -1.35984033      -1.35978245       0.00000000
Si      -1.35902129      -1.35809730       1.35697621       0.00000000
Si      -1.35628457       1.35769005      -1.36324696       0.00000000
Si      -0.00052749      -2.69648370      -2.70548171       0.00000000
Si      -0.00176407       2.71415835       2.71319022       0.00000000
Si       2.71338815      -0.00096111       2.71436815       0.00000000
Si       2.71335557       2.71555929      -0.00051968       0.00000000
Si       2.71415378      -2.71495656      -0.00090077       0.00000000
Si      -0.00139811      -2.71599912       2.71364061       0.00000000
