10
Lattice="16.28999089631971 0.0 0.0 0.0 16.28999089631971 0.0 0.0 0.0 34.64500226677339" Properties=species:S:1:pos:R:3:initial_magmoms:R:1 pbc="T T T"
Si       1.34883695       1.35853713      -1.36137612       0.00000000
Si      -1.36682874      -1.35759231      -1.36137612       0.00000000
Si      -1.20515049       1.51443243       1.37374440       0.00000000
Si       1.56045887      -1.19663082       1.34530083       0.00000000
Si       1.93767011       1.14373719       2.44406770       0.00000000
Si       0.30183741      -2.75887766       2.45390688       0.00000000
Si       2.70726509       0.00185706      -2.71949562       0.00000000
Si      -2.73228912      -2.69541996       0.01420446       0.00000000
Si       2.71441803       2.71428867       0.02203423       0.00000000
Si      -0.00607617      -2.71221007      -2.72150503       0.00000000
