10
Lattice="16.28999089631971 0.0 0.0 0.0 16.28999089631971 0.0 0.0 0.0 34.64500226677339" Properties=species:S:1:pos:R:3:initial_magmoms:R:1 pbc="T T T"
Si       1.34697123       1.33701804      -1.38261352       0.00000000
Si       1.51150023      -1.22157081       1.35285345       0.00000000
Si      -1.37060802      -1.37661903      -1.38382610       0.00000000
Si      -1.22124501       1.58622246       1.51204732       0.00000000
Si      -0.09560601      -2.10269691       2.76941909       0.00000000
Si       2.70930393       2.70089829      -0.02016340       0.00000000
Si      -2.70153360       2.71117728      -0.00848803       0.00000000
Si      -2.71158453      -2.71601541      -0.00540462       0.00000000
Si      -0.00423540       2.69794980      -2.74208417       0.00000000
Si       2.70892926      -0.01705563      -2.74069837       0.00000000
