10
Lattice="16.28999089631971 0.0 0.0 0.0 16.28999089631971 0.0 0.0 0.0 34.64500226677339" Properties=species:S:1:pos:R:3:initial_magmoms:R:1 pbc="T T T"
Si       2.32711839      -0.43028406       0.32410418       0.00000000
Si      -0.24751026       1.43617527      -1.93094028       0.00000000
Si      -1.30096827      -1.94393457      -0.63220235       0.00000000
Si      -1.14735357       0.91597041       2.05122780       0.00000000
Si      -3.29136192      -1.08652671       0.37541345       0.00000000
Si      -2.17655577       2.61039105      -1.14952182       0.00000000
Si      -2.42833401      -1.00960533       2.60509776       0.00000000
Si       3.31291426       1.68821415       0.73177215       0.00000000
Si      -1.46135961      -1.95100443      -2.95023146       0.00000000
Si       1.20358665       3.30092415      -1.87311774       0.00000000
