10
Lattice="16.28999089631971 0.0 0.0 0.0 16.28999089631971 0.0 0.0 0.0 34.64500226677339" Properties=species:S:1:pos:R:3:initial_magmoms:R:1 pbc="T T T"
Si      -0.92786211       1.15851222      -1.76291193       0.00000000
Si      -1.72527390      -1.54030095       0.58608983       0.00000000
Si       1.92904551      -1.17421578      -0.78141846       0.00000000
Si       0.48389445       1.48237371       1.82184311       0.00000000
Si      -0.61905258       0.01080027       3.28992590       0.00000000
Si       3.38014242       0.69053310      -0.72359592       0.00000000
Si       2.83263552       1.49921757       1.47885739       0.00000000
Si       2.17655577      -2.61039105       1.14952182       0.00000000
Si      -2.81284317      -1.60472790      -1.57267611       0.00000000
Si       0.60747039       2.81079063      -2.24129038       0.00000000
