10
Lattice="16.28999089631971 0.0 0.0 0.0 16.28999089631971 0.0 0.0 0.0 34.64500226677339" Properties=species:S:1:pos:R:3:initial_magmoms:R:1 pbc="T T T"
Si      -1.53549540      -1.79859519       0.24740010       0.00000000
Si      -0.76390326       1.58920353      -1.62211456       0.00000000
Si       2.32518573      -0.40576761      -0.57171215       0.00000000
Si      -0.05277960       0.96780519       2.22899140       0.00000000
Si       2.77149915       1.94002497      -0.88476456       0.00000000
Si      -1.85634324       2.43722835       1.78453042       0.00000000
Si       1.17514431       2.22210261      -2.70487542       0.00000000
Si      -1.01776662      -2.69825931       2.37928151       0.00000000
Si      -1.51343874       3.41423739      -0.30806353       0.00000000
Si       2.29824207      -1.39554801      -2.76346015       0.00000000
