10
Lattice="16.28999089631971 0.0 0.0 0.0 16.28999089631971 0.0 0.0 0.0 34.64500226677339" Properties=species:S:1:pos:R:3:initial_magmoms:R:1 pbc="T T T"
Si      -2.04753897       0.99124650       0.41501271       0.00000000
Si       0.72513306      -1.12901103       1.93270718       0.00000000
Si       0.82508850       2.17207602      -0.60046751       0.00000000
Si       0.09255978      -1.75089807      -1.76772758       0.00000000
Si       2.61499039       1.10526021      -1.75206803       0.00000000
Si       1.36018488      -0.35333010      -3.23400883       0.00000000
Si      -0.72596385      -2.99375991       1.87488464       0.00000000
Si      -2.97329967       1.49200110      -1.71007827       0.00000000
Si      -3.58287147      -0.66103191       0.89339117       0.00000000
Si      -2.00586915       2.66014071       2.19001575       0.00000000
