10
Lattice="16.28999089631971 0.0 0.0 0.0 16.28999089631971 0.0 0.0 0.0 34.64500226677339" Properties=species:S:1:pos:R:3:initial_magmoms:R:1 pbc="T T T"
Si      -1.34883695      -1.35853713       1.36137612       0.00000000
Si       1.35842814      -1.35668007      -1.35811949       0.00000000
Si      -1.35655841       1.36041048      -1.35843130       0.00000000
Si       1.36558108       1.35575154       1.38341036       0.00000000
Si       0.21162191      -2.55516795       2.70667696       0.00000000
Si      -2.55398744       0.15589530       2.73512052       0.00000000
Si       2.71505282       2.71182888      -0.00093542       0.00000000
Si       2.71368446      -2.71692765       0.00245980       0.00000000
Si       2.71488992      -0.00004887      -2.71672402       0.00000000
Si      -2.71566569      -2.71612944       0.00000000       0.00000000
