10
Lattice="16.28999089631971 0.0 0.0 0.0 16.28999089631971 0.0 0.0 0.0 34.64500226677339" Properties=species:S:1:pos:R:3:initial_magmoms:R:1 pbc="T T T"
Si      -1.44495558       1.21033071       1.39269869       0.00000000
Si      -1.66146597      -0.86552028      -1.44900174       0.00000000
Si       0.99976617       1.67654466      -1.34984769       0.00000000
Si       1.26765522      -1.51273827       1.35209126       0.00000000
Si       2.61535040       2.59816445       0.08586422       0.00000000
Si      -2.53128681       2.72176156      -0.04118600       0.00000000
Si      -0.24619077      -0.71408844      -3.66877756       0.00000000
Si      -0.09975996       2.55988458       2.74226433       0.00000000
Si       2.62108448      -0.15886008       2.73644396       0.00000000
Si      -3.46807584       0.96568749      -1.23173445       0.00000000
