10
Lattice="16.28999089631971 0.0 0.0 0.0 16.28999089631971 0.0 0.0 0.0 34.64500226677339" Properties=species:S:1:pos:R:3:initial_magmoms:R:1 pbc="T T T"
Si       1.07066025      -1.72431279       1.20342947       0.00000000
Si       1.65703576       1.09579572      -1.32839406       0.00000000
Si      -1.16206344      -1.57446108      -1.46780563       0.00000000
Si       0.18559197       1.88776665       2.16742720       0.00000000
Si       1.39515705      -0.02850750       2.88295083       0.00000000
Si      -2.39093217       2.54741391       0.25159215       0.00000000
Si      -2.72772792      -2.40438771       0.09381872       0.00000000
Si       0.13100418       2.35590867      -2.79613041       0.00000000
Si      -2.61239472      -0.33695865      -2.80600424       0.00000000
Si       2.86056214      -2.79112860       0.05182895       0.00000000
