10
Lattice="16.28999089631971 0.0 0.0 0.0 16.28999089631971 0.0 0.0 0.0 34.64500226677339" Properties=species:S:1:pos:R:3:initial_magmoms:R:1 pbc="T T T"
Si      -1.35477414       1.22854293       1.47825803       0.00000000
Si      -1.66905711      -0.94591143      -1.41786279       0.00000000
Si       0.87793326       1.90487115      -1.33360610       0.00000000
Si       1.37990961      -1.50125382       1.42651223       0.00000000
Si      -2.63803681       2.60084511       0.00102549       0.00000000
Si      -2.66438588      -2.70267390      -0.07036057       0.00000000
Si      -3.36547653       0.91872342      -1.54868240       0.00000000
Si       0.01298313       2.56847688       2.83669973       0.00000000
Si      -0.84475053       3.61923075      -1.13682650       0.00000000
Si      -2.70306649      -0.14353119       2.83957526       0.00000000
