10
Lattice="16.28999089631971 0.0 0.0 0.0 16.28999089631971 0.0 0.0 0.0 34.64500226677339" Properties=species:S:1:pos:R:3:initial_magmoms:R:1 pbc="T T T"
Si       1.35497285       1.35594702       1.35659511       0.00000000
Si       1.35264175      -1.35910728      -1.35784233       0.00000000
Si      -1.36046331      -1.35848826       1.35638724       0.00000000
Si      -1.36282536       1.35376416      -1.36466740       0.00000000
Si       2.70093410       0.01296684      -2.71915956       0.00000000
Si       2.71158776      -0.00047241       2.71370990       0.00000000
Si       2.71144115      -2.71430496      -0.00062361       0.00000000
Si      -0.00338323       2.71415835       2.71384848       0.00000000
Si       2.71320047       2.71554300      -0.00117793       0.00000000
Si      -0.00367850      -2.71570590       2.71308629       0.00000000
