10
Lattice="16.28999089631971 0.0 0.0 0.0 16.28999089631971 0.0 0.0 0.0 34.64500226677339" Properties=species:S:1:pos:R:3:initial_magmoms:R:1 pbc="T T T"
Si       1.35657185       1.35465322       1.35808485       0.00000000
Si      -1.36251489       1.35582121      -1.35472428       0.00000000
Si      -1.35884964      -1.36017043       1.35829272       0.00000000
Si       1.35832954      -1.36292344      -1.36054464       0.00000000
Si      -2.70771051       0.00626735      -2.70428992       0.00000000
Si      -0.00117760       2.71192950       2.71471460       0.00000000
Si       2.71437430       2.71297206       0.00017323       0.00000000
Si      -2.71520391       2.71236933       0.00155903       0.00000000
Si       2.71378786      -0.00274662       2.71495712       0.00000000
Si      -2.71543197      -2.71442329       0.00069290       0.00000000
