10
Lattice="16.28999089631971 0.0 0.0 0.0 16.28999089631971 0.0 0.0 0.0 34.64500226677339" Properties=species:S:1:pos:R:3:initial_magmoms:R:1 pbc="T T T"
Si       1.35576294       1.35651717      -1.35860452       0.00000000
Si       1.35581181      -1.36195803       1.35773840       0.00000000
Si      -1.36096357       1.35879777       1.35725337       0.00000000
Si      -1.35950331      -1.35871632      -1.35922813       0.00000000
Si      -0.00085197       2.71293660      -2.71571931       0.00000000
Si       2.71267107      -0.00084708      -2.71603112       0.00000000
Si      -2.71579942      -2.71337643       0.00024252       0.00000000
Si       2.71516344       2.71427238      -0.00121258       0.00000000
Si       2.71550553      -2.71541268      -0.00183619       0.00000000
Si      -2.71684198       2.71414206      -0.00086613       0.00000000
