10
Lattice="16.28999089631971 0.0 0.0 0.0 16.28999089631971 0.0 0.0 0.0 34.64500226677339" Properties=species:S:1:pos:R:3:initial_magmoms:R:1 pbc="T T T"
Si      -1.35587841       1.35534429      -1.35811949       0.00000000
Si      -1.35446118      -1.35422028       1.36352412       0.00000000
Si       1.36096357      -1.35879777      -1.35725337       0.00000000
Si       1.35946164       1.35720135       1.36660752       0.00000000
Si       0.13615773      -2.53685799       2.74714234       0.00000000
Si      -2.63166234       0.13839984       2.70944856       0.00000000
Si      -2.71306347       2.71119357       0.00058897       0.00000000
Si       2.71268660       2.71264338       0.00336057       0.00000000
Si       0.00175553       2.71235016      -2.71571931       0.00000000
Si      -2.71309605      -0.00252495      -2.71565002       0.00000000
