10
Lattice="16.28999089631971 0.0 0.0 0.0 16.28999089631971 0.0 0.0 0.0 34.64500226677339" Properties=species:S:1:pos:R:3:initial_magmoms:R:1 pbc="T T T"
Si       1.35887922       1.35340251      -1.35858720       0.00000000
Si       1.35700587      -1.35373158       1.36054464       0.00000000
Si      -1.35832954       1.36292344       1.36054464       0.00000000
Si      -1.35342926      -1.35387819      -1.38435270       0.00000000
Si      -2.62108448       0.15886008      -2.73644396       0.00000000
Si      -0.00573408       2.75702453      -2.65057974       0.00000000
Si       2.71249677      -2.71637379       0.00100471       0.00000000
Si      -0.00122175      -2.71332756       2.71831769       0.00000000
Si       2.71337643       0.00208512       2.71831769       0.00000000
Si       2.71573848       2.71782590       0.00294483       0.00000000
