10
Lattice="16.28999089631971 0.0 0.0 0.0 16.28999089631971 0.0 0.0 0.0 34.64500226677339" Properties=species:S:1:pos:R:3:initial_magmoms:R:1 pbc="T T T"
Si       1.35637056       1.35581670       1.35777304       0.00000000
Si      -1.35700587       1.35373158      -1.36054464       0.00000000
Si      -1.35822762      -1.35959598       1.35777304       0.00000000
Si       1.35549090      -1.36264221      -1.35953994       0.00000000
Si      -0.01226637      -2.70257616      -2.71798163       0.00000000
Si       0.00187335       2.70713409      -2.71913184       0.00000000
Si       2.71347417      -0.00128691       2.71492247       0.00000000
Si      -2.71320047      -2.71554300       0.00117793       0.00000000
Si      -0.00154755       2.71390840       2.71495712       0.00000000
Si       2.71357191      -2.71544526       0.00093542       0.00000000
