10
Lattice="16.28999089631971 0.0 0.0 0.0 16.28999089631971 0.0 0.0 0.0 34.64500226677339" Properties=species:S:1:pos:R:3:initial_magmoms:R:1 pbc="T T T"
Si       1.33079526       1.35054063      -1.38098521       0.00000000
Si      -1.22767956       1.44802985       1.41698138       0.00000000
Si      -1.38937410      -1.36246302      -1.37516484       0.00000000
Si       1.42656417      -1.32462135       1.48287622       0.00000000
Si      -1.96755507      -0.32255829       2.86043157       0.00000000
Si      -0.35868951      -2.24108046       2.77083954       0.00000000
Si       2.68169238       2.69672383      -0.00079684       0.00000000
Si       2.67968871      -2.72824920       0.00145509       0.00000000
Si       2.68688889      -0.00197109      -2.73699135       0.00000000
Si      -2.72991078       2.69788857      -0.01313046       0.00000000
