10
Lattice="16.28999089631971 0.0 0.0 0.0 16.28999089631971 0.0 0.0 0.0 34.64500226677339" Properties=species:S:1:pos:R:3:initial_magmoms:R:1 pbc="T T T"
Si      -0.30512799      -2.22169536       0.58657486       0.00000000
Si      -2.10005141       0.75528585       0.82708060       0.00000000
Si       1.99668159       0.89480970       1.22016302       0.00000000
Si      -0.39679182      -0.61755390      -2.54952714       0.00000000
Si      -2.60573930      -2.68574859       0.27172090       0.00000000
Si       3.18824622       1.97577730      -0.62430329       0.00000000
Si       0.35925966      -2.64756483       2.77350721       0.00000000
Si       1.21207374      -2.53607607      -2.63911917       0.00000000
Si       1.22701167      -3.67521948      -0.52729723       0.00000000
Si      -3.81530438      -0.76947444      -0.44380273       0.00000000
