10
Lattice="10.86 0.0 0.0 0.0 10.86 0.0 0.0 0.0 10.86" Properties=species:S:1:pos:R:3:initial_magmoms:R:1 pbc="T T T"
Si      -2.04286374      -1.15017174       0.42111822       0.00000000
Si       2.02377186       0.00334488       1.69667952       0.00000000
Si       0.67213626      -1.15017174      -2.29388178       0.00000000
Si      -0.68536374      -2.50767174       1.77861822       0.00000000
Si      -0.43777746       2.76345732       1.75865754       0.00000000
Si       2.02963626      -2.50767174      -0.93638178       0.00000000
Si       0.67213626      -1.15017174       3.13611822       0.00000000
Si      -2.04286374       1.56482826      -2.29388178       0.00000000
Si       3.38713626      -1.15017174       0.42111822       0.00000000
Si       1.83299424       0.78893556      -3.10864242       0.00000000
