10
Lattice="10.86 0.0 0.0 0.0 10.86 0.0 0.0 0.0 10.86" Properties=species:S:1:pos:R:3:initial_magmoms:R:1 pbc="T T T"
Si       1.94998902       0.36138822       1.05576576       0.00000000
Si      -1.16085798       0.77589270      -1.90023936       0.00000000
Si      -1.16085798      -1.93910730       0.81476064       0.00000000
Si       1.55414202      -1.93910730      -1.90023936       0.00000000
Si      -2.53549506       2.37763410      -0.65459736       0.00000000
Si       2.84955540       2.05598262      -0.49800702       0.00000000
Si      -1.83299424      -0.78893556       3.10864242       0.00000000
Si       0.19664202       2.13339270      -3.25773936       0.00000000
Si       0.19664202      -3.29660730       2.17226064       0.00000000
Si      -1.22537724       3.75367212       0.44237124       0.00000000
