10
Lattice="16.28999089631971 0.0 0.0 0.0 16.28999089631971 0.0 0.0 0.0 34.25627252547053" Properties=species:S:1:pos:R:3:initial_magmoms:R:1 pbc="T T T"
Si       1.35534040       1.35236322       1.37168701       0.00000000
Si      -1.35860360      -1.35694885       1.36915204       0.00000000
Si      -1.29665273       1.35065277      -1.47251697       0.00000000
Si       1.25670119      -1.33535483      -1.52688171       0.00000000
Si      -0.69371096      -2.35262298      -2.60438699       0.00000000
Si       1.83342909       0.49790385      -3.06742966       0.00000000
Si      -2.34273137      -0.38688750      -2.84229731       0.00000000
Si       0.41796167       2.50341462      -2.81725596       0.00000000
Si       2.69938920      -2.70631949      -0.01661430       0.00000000
Si      -2.71691267       2.71388142      -0.02042360       0.00000000
