10
Lattice="16.28999089631971 0.0 0.0 0.0 16.28999089631971 0.0 0.0 0.0 34.25627252547053" Properties=species:S:1:pos:R:3:initial_magmoms:R:1 pbc="T T T"
Si      -2.29049196      -0.38758797      -0.25640834       0.00000000
Si       0.33927346       0.41632353       2.29225976       0.00000000
Si       0.85084625       2.01892626      -0.89638438       0.00000000
Si       1.54791164      -1.72126656      -0.55464362       0.00000000
Si       3.20141180      -0.31526037       0.42953964       0.00000000
Si       3.12703166       1.98325604      -0.04477297       0.00000000
Si       2.59045535      -0.07565076       2.65267020       0.00000000
Si       0.71550893       1.64654337      -3.25205254       0.00000000
Si      -2.67299745      -0.27318330      -2.59686670       0.00000000
Si      -3.44667471       1.28282121       0.89998129       0.00000000
