10
Lattice="16.28999089631971 0.0 0.0 0.0 16.28999089631971 0.0 0.0 0.0 34.25627252547053" Properties=species:S:1:pos:R:3:initial_magmoms:R:1 pbc="T T T"
Si       1.36012215      -1.35606105       1.35401418       0.00000000
Si      -1.35773073      -1.35573525      -1.35761110       0.00000000
Si       1.35666867       1.35966114      -1.35767961       0.00000000
Si      -1.35790382       1.36120869       1.36018032       0.00000000
Si       0.02081373      -2.70893089       2.70247885       0.00000000
Si       2.71276230      -2.71118705       0.00054810       0.00000000
Si      -0.00074120      -2.71264827      -2.71529070       0.00000000
Si      -2.71497515      -2.71350186      -0.00020554       0.00000000
Si       2.71404921       0.00231318      -2.71501665       0.00000000
Si      -2.71505660       0.00122175      -2.71525645       0.00000000
