10
Lattice="16.28999089631971 0.0 0.0 0.0 16.28999089631971 0.0 0.0 0.0 34.25627252547053" Properties=species:S:1:pos:R:3:initial_magmoms:R:1 pbc="T T T"
Si       1.35856971       1.35694071       1.35685746       0.00000000
Si       1.35752715      -1.35721764      -1.35771386       0.00000000
Si      -1.35923760      -1.35541922       1.35785089       0.00000000
Si      -1.35795069       1.35808101      -1.35771386       0.00000000
Si      -2.71187775      -0.00029322       2.71131697       0.00000000
Si       2.71422351       0.00019548       2.71193359       0.00000000
Si      -2.71435383      -2.71505072       0.00010277       0.00000000
Si      -0.00045612       2.71477737      -2.71477686       0.00000000
Si      -2.71573848       0.00084708      -2.71381768       0.00000000
Si       2.71498914      -2.71481547       0.00003426       0.00000000
