10
Lattice="16.28999089631971 0.0 0.0 0.0 16.28999089631971 0.0 0.0 0.0 34.25627252547053" Properties=species:S:1:pos:R:3:initial_magmoms:R:1 pbc="T T T"
Si       1.76746500      -0.49549782       1.42396553       0.00000000
Si      -1.54378701       1.26034264       1.25165639       0.00000000
Si      -0.37370889      -2.18301217      -0.91573919       0.00000000
Si       0.62027433       1.86768271      -1.41375716       0.00000000
Si       1.88550234       1.78097104       2.08267976       0.00000000
Si      -3.46340876       0.20552604       0.27285136       0.00000000
Si       1.94017158      -2.48423056      -1.52947491       0.00000000
Si      -2.83856508       0.43692712      -2.01889455       0.00000000
Si       0.61318818      -1.99339657       2.87252708       0.00000000
Si       2.03362731       0.72190927      -2.85683770       0.00000000
