10
Lattice="16.28999089631971 0.0 0.0 0.0 16.28999089631971 0.0 0.0 0.0 34.25627252547053" Properties=species:S:1:pos:R:3:initial_magmoms:R:1 pbc="T T T"
Si       1.59923817      -0.75339621      -1.66653433       0.00000000
Si      -1.05433767       1.66361625      -1.61720527       0.00000000
Si      -0.01449810      -1.97763858       1.71072495       0.00000000
Si      -2.35735848      -1.19747790       0.44481795       0.00000000
Si       1.39885488      -3.12341202       0.26764441       0.00000000
Si      -2.33160399       2.70817992       0.18608018       0.00000000
Si       1.33685514      -0.78128469       3.23972027       0.00000000
Si       3.27362211      -1.57612266      -0.04628025       0.00000000
Si       0.32412213      -2.33328186      -2.95265255       0.00000000
Si      -2.56513743       0.49580244      -3.07268659       0.00000000
