10
Lattice="16.28999089631971 0.0 0.0 0.0 16.28999089631971 0.0 0.0 0.0 34.25627252547053" Properties=species:S:1:pos:R:3:initial_magmoms:R:1 pbc="T T T"
Si       1.54378701      -1.26034264      -1.25165639       0.00000000
Si      -0.50585337      -0.08001648       2.29839163       0.00000000
Si      -1.91962174      -1.05481660      -0.97880502       0.00000000
Si       0.20240325       2.46016467      -0.31813818       0.00000000
Si       2.16406134       0.60734007      -2.66541354       0.00000000
Si       3.42928935       0.52062840       0.83102338       0.00000000
Si      -1.29477807      -0.82341552      -3.27055093       0.00000000
Si      -1.99005156       1.72788030       2.53537666       0.00000000
Si      -3.63280751       0.51243453      -0.70794052       0.00000000
Si       3.31125201      -1.75584046       0.17230915       0.00000000
