10
Lattice="16.28999089631971 0.0 0.0 0.0 16.28999089631971 0.0 0.0 0.0 34.25627252547053" Properties=species:S:1:pos:R:3:initial_magmoms:R:1 pbc="T T T"
Si       1.36278882      -1.31934339       1.33328570       0.00000000
Si      -1.78370613      -0.88743033      -1.25045502       0.00000000
Si       1.46614887       1.17296145      -1.42335718       0.00000000
Si      -1.34552142       1.41156108       1.32498540       0.00000000
Si      -0.90482805      -0.15431517      -3.34705349       0.00000000
Si      -0.17200611       2.20245687      -2.80700306       0.00000000
Si       0.00138465      -2.66856264       2.68302813       0.00000000
Si       2.68848531      -2.67630039      -0.02425003       0.00000000
Si      -2.70984150       0.04756680       2.67830076       0.00000000
Si       2.71671588       0.04676859       2.68059593       0.00000000
