10
Lattice="16.28999089631971 0.0 0.0 0.0 16.28999089631971 0.0 0.0 0.0 34.25627252547053" Properties=species:S:1:pos:R:3:initial_magmoms:R:1 pbc="T T T"
Si      -1.51109787       0.30576330      -2.00132107       0.00000000
Si      -1.11597903      -2.21091627       0.66076961       0.00000000
Si       2.35735848       1.19747790      -0.44481795       0.00000000
Si       2.34286038      -0.78016068       1.26590700       0.00000000
Si      -2.98340666       0.73919133       1.57445342       0.00000000
Si      -3.65199713       0.32909058      -0.67022435       0.00000000
Si       1.30302081       2.86109415      -2.06202322       0.00000000
Si       0.38120229       1.07266392       3.61318236       0.00000000
Si      -0.20777895       1.69328034      -3.51750454       0.00000000
Si       0.02575449       3.90565782      -0.25873777       0.00000000
