10
Lattice="16.28999089631971 0.0 0.0 0.0 16.28999089631971 0.0 0.0 0.0 34.25627252547053" Properties=species:S:1:pos:R:3:initial_magmoms:R:1 pbc="T T T"
Si       1.64274876      -1.50146559       0.76929354       0.00000000
Si      -0.34590186      -0.50717286      -2.28352440       0.00000000
Si       1.21780782       1.91889684       0.65374707       0.00000000
Si      -2.14956324       0.22452507       1.06201355       0.00000000
Si      -1.97159499      -2.14547445      -1.55228960       0.00000000
Si      -1.69691301       2.11268268       2.36173152       0.00000000
Si       3.56737968      -0.75061062      -0.39723596       0.00000000
Si       0.21688506       1.33753932       3.48581747       0.00000000
Si      -1.24098849      -3.53629836       0.29141827       0.00000000
Si       0.58899753       3.66239925      -0.74517711       0.00000000
