10
Lattice="16.28999089631971 0.0 0.0 0.0 16.28999089631971 0.0 0.0 0.0 34.25627252547053" Properties=species:S:1:pos:R:3:initial_magmoms:R:1 pbc="T T T"
Si      -1.35708732      -1.35628911      -1.35678894       0.00000000
Si       1.35391077      -1.35536058       1.36134503       0.00000000
Si       1.35759231       1.35866745      -1.35754258       0.00000000
Si      -1.35700587       1.36063854       1.35696023       0.00000000
Si      -2.71493212      -2.71376739       0.00044533       0.00000000
Si       0.00022806      -2.71453302      -2.71470835       0.00000000
Si      -2.71492561       0.00071676      -2.71457132       0.00000000
Si       2.71604799      -2.71406061       0.00003426       0.00000000
Si       2.71555929       0.00078192      -2.71474260       0.00000000
Si       2.71526607       2.71520091       0.00068513       0.00000000
