10
Lattice="16.28999089631971 0.0 0.0 0.0 16.28999089631971 0.0 0.0 0.0 34.25627252547053" Properties=species:S:1:pos:R:3:initial_magmoms:R:1 pbc="T T T"
Si      -1.35814617      -0.60918084      -1.82880639       0.00000000
Si       0.25443351      -2.03489793       1.27327211       0.00000000
Si      -1.04013279       1.70202548       1.39183313       0.00000000
Si       2.06224884       0.93797398      -0.91457447       0.00000000
Si      -0.20386935       0.88871791      -3.27736794       0.00000000
Si       3.38649552       1.39576860       0.99456292       0.00000000
Si      -0.24133635      -1.62189756       3.51332527       0.00000000
Si      -3.60119772      -1.12866894      -1.00761456       0.00000000
Si       2.49482979      -2.61907362       1.68260053       0.00000000
Si       0.52111710       3.18646151       2.43271055       0.00000000
