10
Lattice="16.28999089631971 0.0 0.0 0.0 16.28999089631971 0.0 0.0 0.0 34.25627252547053" Properties=species:S:1:pos:R:3:initial_magmoms:R:1 pbc="T T T"
Si      -0.85084625      -2.01892626       0.89638438       0.00000000
Si      -1.47794935       1.78372079       0.50565712       0.00000000
Si      -0.13533732      -0.37238288      -2.35566815       0.00000000
Si       2.27618541      -0.03567021       0.85161141       0.00000000
Si       2.35056555      -2.33418663       1.32592403       0.00000000
Si      -0.51157279      -1.60260273       3.18864414       0.00000000
Si      -2.56765328      -0.36705280      -2.72275857       0.00000000
Si       0.82924245       1.53500507      -3.35009404       0.00000000
Si      -0.78860216       3.64333832      -0.78498292       0.00000000
Si       0.69706539      -3.74019282       0.34174077       0.00000000
