10
Lattice="16.28999089631971 0.0 0.0 0.0 16.28999089631971 0.0 0.0 0.0 34.25627252547053" Properties=species:S:1:pos:R:3:initial_magmoms:R:1 pbc="T T T"
Si       1.35555606       1.35793666       1.35689171       0.00000000
Si       1.35728280      -1.35746366      -1.35743981       0.00000000
Si      -1.35746199       1.35759783      -1.35774812       0.00000000
Si      -1.35769005      -1.35816413       1.35781663       0.00000000
Si      -0.00076563       2.71501095       2.71189933       0.00000000
Si       2.71435383      -0.00178039      -2.71433153       0.00000000
Si      -2.71269225       0.00010390      -2.71601009       0.00000000
Si      -0.00089595      -2.71370390      -2.71511942       0.00000000
Si       2.71422351       2.71522272      -0.00017128       0.00000000
Si      -2.71212210      -0.00180243       2.71741459       0.00000000
