10
Lattice="16.28999089631971 0.0 0.0 0.0 16.28999089631971 0.0 0.0 0.0 34.25627252547053" Properties=species:S:1:pos:R:3:initial_magmoms:R:1 pbc="T T T"
Si       0.03419271       0.26857323       2.36611632       0.00000000
Si      -1.35884664       1.82967651      -0.70622771       0.00000000
Si      -1.07774640      -2.26411289      -0.52689602       0.00000000
Si       2.30172813       0.66217221       2.04307949       0.00000000
Si       0.88317864      -2.17204181      -2.15701592       0.00000000
Si       0.94579740       0.00648342      -3.12071391       0.00000000
Si      -1.07452098       1.10263752      -2.88533893       0.00000000
Si       2.73470004       0.57135546      -1.74833836       0.00000000
Si       2.84659605      -1.62872307      -0.96791152       0.00000000
Si       2.71463076       2.07655146       0.16144990       0.00000000
