10
Lattice="16.28999089631971 0.0 0.0 0.0 16.28999089631971 0.0 0.0 0.0 34.25627252547053" Properties=species:S:1:pos:R:3:initial_magmoms:R:1 pbc="T T T"
Si      -1.35171162       1.35306369       1.35911837       0.00000000
Si      -1.35653346      -1.35729909      -1.35702874       0.00000000
Si       1.35860229       1.35765747      -1.35692597       0.00000000
Si       1.35953082      -1.35470898       1.35915263       0.00000000
Si       2.70785412       0.01093059       2.71337235       0.00000000
Si      -2.71311579      -2.71524978       0.00017128       0.00000000
Si      -2.71437012       0.00042354      -2.71429727       0.00000000
Si       0.00100998      -2.71482624      -2.71412599       0.00000000
Si      -2.71360449       2.71555929       0.00051384       0.00000000
Si       2.71456560      -2.71469592       0.00137025       0.00000000
