10
Lattice="16.28999089631971 0.0 0.0 0.0 16.28999089631971 0.0 0.0 0.0 34.25627252547053" Properties=species:S:1:pos:R:3:initial_magmoms:R:1 pbc="T T T"
Si      -0.56426931       1.94437440      -1.19527053       0.00000000
Si       0.20922876       0.23602581       2.36145747       0.00000000
Si      -1.47823605      -1.82260665      -0.41371323       0.00000000
Si       2.07827820      -1.05163353      -0.52723859       0.00000000
Si       1.39530366       3.09327552      -0.81009279       0.00000000
Si       1.90061946      -2.79261099       1.09842799       0.00000000
Si      -0.33995601      -3.46929759       0.84774045       0.00000000
Si      -2.00981133       3.22064703       0.12335691       0.00000000
Si       1.71900225       3.07654569       1.50638617       0.00000000
Si       2.40383385       1.18661247       2.80809100       0.00000000
