10
Lattice="16.28999089631971 0.0 0.0 0.0 16.28999089631971 0.0 0.0 0.0 34.25627252547053" Properties=species:S:1:pos:R:3:initial_magmoms:R:1 pbc="T T T"
Si       1.13932260      -1.61640783      -1.20773982       0.00000000
Si       0.32804802       1.77235200      -1.49384837       0.00000000
Si      -2.34391923       0.18456570       0.30847791       0.00000000
Si       0.97591761      -0.38833731       2.21285367       0.00000000
Si      -0.14274927       1.51083234       3.08080534       0.00000000
Si       3.33392769      -0.66582117      -0.76110629       0.00000000
Si       0.65782278      -3.44421099       0.13935459       0.00000000
Si      -2.31316371       0.83712681       2.55990416       0.00000000
Si       2.64909609       1.22411205      -2.06281112       0.00000000
Si       0.37349712      -2.71717200       2.31846582       0.00000000
