10
Lattice="16.28999089631971 0.0 0.0 0.0 16.28999089631971 0.0 0.0 0.0 34.25627252547053" Properties=species:S:1:pos:R:3:initial_magmoms:R:1 pbc="T T T"
Si      -0.51015393      -2.18650896      -0.87583061       0.00000000
Si       2.16707499       0.08273691       1.09140545       0.00000000
Si       0.66715695       1.79668926      -1.49480754       0.00000000
Si      -1.40745600      -0.46279890       1.99604560       0.00000000
Si       0.82072278      -3.13802415       1.04690653       0.00000000
Si       0.21721086      -1.82347002       3.13996595       0.00000000
Si      -2.92146489      -2.01746763      -0.88124310       0.00000000
Si       0.95583204       3.56742855      -0.00596059       0.00000000
Si       2.75708250       2.43431244       1.09589303       0.00000000
Si      -3.09088089       2.02773033      -1.39125077       0.00000000
