10
Lattice="16.28999089631971 0.0 0.0 0.0 16.28999089631971 0.0 0.0 0.0 34.25627252547053" Properties=species:S:1:pos:R:3:initial_magmoms:R:1 pbc="T T T"
Si       1.60088346       1.06735338      -1.27508906       0.00000000
Si      -1.32569649       1.35695700       1.35753573       0.00000000
Si       1.37981187      -1.37137365       1.34274729       0.00000000
Si      -1.50679242      -0.95918778      -1.55935808       0.00000000
Si      -2.65952169      -2.51928108      -0.15182388       0.00000000
Si       3.38085918      -0.77125005      -1.29396736       0.00000000
Si      -0.00265527       1.94994558      -3.24630917       0.00000000
Si      -2.68848531       2.67630039       0.02425003       0.00000000
Si      -2.68710066       0.00773775       2.70727816       0.00000000
Si       2.71955034       2.69332344       0.05326853       0.00000000
