10
Lattice="16.28999089631971 0.0 0.0 0.0 16.28999089631971 0.0 0.0 0.0 34.25627252547053" Properties=species:S:1:pos:R:3:initial_magmoms:R:1 pbc="T T T"
Si       1.35773892       1.35632169      -1.35805643       0.00000000
Si      -1.35744570       1.35796698       1.35699448       0.00000000
Si       1.35821133      -1.35777150       1.35720002       0.00000000
Si      -1.35777150      -1.35936792      -1.35668618       0.00000000
Si       0.00040725      -2.71373481      -2.71337235       0.00000000
Si       0.00125433       2.71357191       2.71443430       0.00000000
Si      -2.71399545       0.00013032       2.71463983       0.00000000
Si       2.71484253      -0.00032580       2.71419450       0.00000000
Si      -2.71448415       2.71497285      -0.00013703       0.00000000
Si      -0.00039096      -2.71542897       2.71412599       0.00000000
