10
Lattice="16.28999089631971 0.0 0.0 0.0 16.28999089631971 0.0 0.0 0.0 34.25627252547053" Properties=species:S:1:pos:R:3:initial_magmoms:R:1 pbc="T T T"
Si      -1.35180936       1.35298876       1.36144780       0.00000000
Si       1.37886705       1.33726891      -1.37066959       0.00000000
Si       1.36622601      -1.36256989       1.35928965       0.00000000
Si      -1.36195803      -1.35391717      -1.38432758       0.00000000
Si      -2.70600683       2.70476554       0.00397373       0.00000000
Si      -2.70881197      -0.00473876       2.71727757       0.00000000
Si      -2.70788670      -2.71984423       0.00047959       0.00000000
Si       0.00597843       2.71022269       2.71755162       0.00000000
Si       2.72108160       2.71253587       0.00023979       0.00000000
Si       0.00649971      -2.72021890       2.71755162       0.00000000
