10
Lattice="16.28999089631971 0.0 0.0 0.0 16.28999089631971 0.0 0.0 0.0 34.25627252547053" Properties=species:S:1:pos:R:3:initial_magmoms:R:1 pbc="T T T"
Si      -1.35733167       1.35684297      -1.36175611       0.00000000
Si       1.35870003      -1.35897696      -1.36261251       0.00000000
Si      -1.36466217      -1.34737848       1.36877865       0.00000000
Si       1.34314308       1.37516922       1.38261819       0.00000000
Si       2.67393834      -0.03510495       2.73796837       0.00000000
Si      -2.71176372       2.71320467      -0.00215815       0.00000000
Si       2.71593396       2.71324611       0.00099343       0.00000000
Si      -2.71868697      -2.71371852      -0.00109620       0.00000000
Si       2.71819827      -2.71583622      -0.00596059       0.00000000
Si       0.00035838       2.71500710      -2.71957274       0.00000000
