10
Lattice="16.28999089631971 0.0 0.0 0.0 16.28999089631971 0.0 0.0 0.0 34.25627252547053" Properties=species:S:1:pos:R:3:initial_magmoms:R:1 pbc="T T T"
Si       0.31193721       2.26862685       0.57461504       0.00000000
Si      -0.54030672      -1.76826321       1.47867283       0.00000000
Si       2.23199064      -0.70100757      -0.69667020       0.00000000
Si      -1.99576935      -0.06266763      -1.41111942       0.00000000
Si       2.67314013       2.13211665       1.24151652       0.00000000
Si       0.26192691       3.30498103      -1.61425923       0.00000000
Si       0.25228323      -3.68070921       0.24678233       0.00000000
Si      -3.73875048      -0.03917745       0.22499532       0.00000000
Si      -1.58451201      -1.95980103      -2.84114832       0.00000000
Si      -2.96176635      -1.78650801       1.59322587       0.00000000
