10
Lattice="16.28999089631971 0.0 0.0 0.0 16.28999089631971 0.0 0.0 0.0 34.25627252547053" Properties=species:S:1:pos:R:3:initial_magmoms:R:1 pbc="T T T"
Si       0.32783625       0.53844966      -2.24166321       0.00000000
Si       1.32830289      -1.09695231       1.61306026       0.00000000
Si      -1.92707442       0.96884842       0.98031230       0.00000000
Si       2.48878620       0.82352370      -0.59585394       0.00000000
Si       2.19225933       2.24960406       1.33647496       0.00000000
Si       0.04298931      -3.03714018       1.89790133       0.00000000
Si      -3.41602929       0.78114217      -0.94067777       0.00000000
Si      -1.87706412      -0.06750576       3.16918657       0.00000000
Si       3.54887424      -1.30541544       0.65806336       0.00000000
Si       0.48413880      -0.20401596       3.83608805       0.00000000
