10
Lattice="16.28999089631971 0.0 0.0 0.0 16.28999089631971 0.0 0.0 0.0 34.25627252547053" Properties=species:S:1:pos:R:3:initial_magmoms:R:1 pbc="T T T"
Si       2.26088910       0.47361546       0.41480944       0.00000000
Si      -1.56019104       0.96039324       1.51416235       0.00000000
Si      -0.19184733      -2.32873695       0.58502895       0.00000000
Si      -0.17423784       1.23810516      -2.08586560       0.00000000
Si      -0.30762036       3.22402788      -0.71907382       0.00000000
Si       3.12308622      -1.53808551      -0.42467525       0.00000000
Si      -3.16021113      -0.88288542       1.59908370       0.00000000
Si      -2.47904478      -2.80318320       0.36260285       0.00000000
Si       1.29148749      -3.47527602      -0.76788903       0.00000000
Si       2.64339459       0.35921079       2.75526780       0.00000000
