10
Lattice="16.28999089631971 0.0 0.0 0.0 16.28999089631971 0.0 0.0 0.0 34.25627252547053" Properties=species:S:1:pos:R:3:initial_magmoms:R:1 pbc="T T T"
Si      -1.35558864      -1.35606919       1.35788515       0.00000000
Si       1.35980775       1.35855342       1.35733704       0.00000000
Si      -1.35641943       1.35967743      -1.36011180       0.00000000
Si       1.36298430      -1.35512437      -1.35853602       0.00000000
Si       0.00218286      -2.71391697       2.71484537       0.00000000
Si      -2.71378368      -2.71503202       0.00099343       0.00000000
Si      -2.71391400       0.00197109       2.71515368       0.00000000
Si       2.71583672      -2.71386259       0.00034256       0.00000000
Si      -0.01902672      -2.71787297      -2.71313256       0.00000000
Si      -2.71353933       2.71775844       0.00041108       0.00000000
