10
Lattice="16.28999089631971 0.0 0.0 0.0 16.28999089631971 0.0 0.0 0.0 34.25627252547053" Properties=species:S:1:pos:R:3:initial_magmoms:R:1 pbc="T T T"
Si      -1.35180936      -1.35477414      -1.38333757       0.00000000
Si       1.36200719       1.36233270      -1.38357736       0.00000000
Si       1.44475800      -1.38623013       1.34219576       0.00000000
Si      -1.44710586       1.38487806       1.40067125       0.00000000
Si      -2.70962973      -2.70496590       0.00534398       0.00000000
Si       2.70748501       2.72033226      -0.02212956       0.00000000
Si      -2.71854036       2.72847726      -0.03100194       0.00000000
Si       2.74072475      -2.70780688      -0.04127883       0.00000000
Si      -2.71182888       0.00285075      -2.74300404       0.00000000
Si       0.00493587      -2.71237785      -2.74396322       0.00000000
