10
Lattice="16.28999089631971 0.0 0.0 0.0 16.28999089631971 0.0 0.0 0.0 34.25627252547053" Properties=species:S:1:pos:R:3:initial_magmoms:R:1 pbc="T T T"
Si      -1.95313842      -1.20145592      -0.34434424       0.00000000
Si       1.71318576      -1.56725113      -0.27086450       0.00000000
Si       0.47060181       1.61425755      -1.64892660       0.00000000
Si      -0.40757580       1.08313839       2.11536027       0.00000000
Si      -1.33193556      -2.72298720       1.47785068       0.00000000
Si      -1.25103942       3.09808107      -1.09849650       0.00000000
Si      -1.16084169       3.13616709       1.21263847       0.00000000
Si      -3.57945057       0.40469247       0.18361372       0.00000000
Si       0.02803509      -1.28218916      -3.47091598       0.00000000
Si       2.33802944      -1.33585005      -2.56261041       0.00000000
