10
Lattice="16.28999089631971 0.0 0.0 0.0 16.28999089631971 0.0 0.0 0.0 34.25627252547053" Properties=species:S:1:pos:R:3:initial_magmoms:R:1 pbc="T T T"
Si      -0.29652687       1.42608036       1.93232890       0.00000000
Si       1.68464664       1.34534712      -1.19424284       0.00000000
Si       2.48100677      -0.86001330      -0.10742773       0.00000000
Si      -2.48878620      -0.82352370       0.59585394       0.00000000
Si       1.06008804      -2.12893914       1.25391730       0.00000000
Si      -2.16094995      -0.28507404      -1.64580928       0.00000000
Si      -1.16048331      -1.92047601       2.20891420       0.00000000
Si       0.32467599      -0.09545093       3.75452382       0.00000000
Si       1.62357543       0.50194377      -3.40627436       0.00000000
Si       2.40998139      -0.98165073       2.79072306       0.00000000
