10
Lattice="16.28999089631971 0.0 0.0 0.0 16.28999089631971 0.0 0.0 0.0 34.25627252547053" Properties=species:S:1:pos:R:3:initial_magmoms:R:1 pbc="T T T"
Si       1.33351947      -1.32572907      -1.45739967       0.00000000
Si      -1.71910177      -1.04497092       1.29314075       0.00000000
Si      -1.35487366       1.39973454      -1.44640340       0.00000000
Si       1.66634209       1.03291632       1.58757358       0.00000000
Si      -3.30333685       0.74717343       1.16368623       0.00000000
Si       2.57942917      -2.71702539      -0.02504135       0.00000000
Si       2.73934810       2.71601541       0.13510681       0.00000000
Si      -2.82107140      -2.66118327      -0.03459885       0.00000000
Si      -0.01195834      -2.68372863      -2.81884747       0.00000000
Si      -2.81132998       2.70870120      -0.07221226       0.00000000
