10
Lattice="16.28999089631971 0.0 0.0 0.0 16.28999089631971 0.0 0.0 0.0 34.25627252547053" Properties=species:S:1:pos:R:3:initial_magmoms:R:1 pbc="T T T"
Si       1.23828435      -1.39541769      -1.37322511       0.00000000
Si      -1.37886705       1.32934545      -1.31776075       0.00000000
Si      -1.35172791      -1.35604476       1.33614610       0.00000000
Si       1.35915615       1.35925389       1.33864681       0.00000000
Si       0.42744960       2.14524639      -2.58759524       0.00000000
Si      -0.71755821      -2.13522804      -2.66499664       0.00000000
Si       2.29050432       0.13753647      -2.75307680       0.00000000
Si      -2.49753393      -0.29662461      -2.64611834       0.00000000
Si      -2.71164969       0.00037467       2.69283228       0.00000000
Si       0.00265527      -2.71233387       2.69351740       0.00000000
