10
Lattice="16.28999089631971 0.0 0.0 0.0 16.28999089631971 0.0 0.0 0.0 34.25627252547053" Properties=species:S:1:pos:R:3:initial_magmoms:R:1 pbc="T T T"
Si       1.78344549       0.56658249       1.39440235       0.00000000
Si      -0.22053402      -2.35199907      -0.05652288       0.00000000
Si      -2.11522392      -0.08979048       1.21757137       0.00000000
Si       0.53625051       1.05738390      -2.20864015       0.00000000
Si      -2.07606276      -2.44584576       1.35942668       0.00000000
Si      -0.62783289      -2.70387936      -2.46782325       0.00000000
Si       1.41218010       2.79709074       2.06157789       0.00000000
Si       3.73633209      -0.31493457       0.25633983       0.00000000
Si      -0.13582602      -0.74235159      -3.70372174       0.00000000
Si       1.61943777      -0.41822946       3.52702779       0.00000000
