10
Lattice="16.28999089631971 0.0 0.0 0.0 16.28999089631971 0.0 0.0 0.0 34.25627252547053" Properties=species:S:1:pos:R:3:initial_magmoms:R:1 pbc="T T T"
Si      -1.85552874      -0.09384669       1.41594956       0.00000000
Si       0.22053402       2.35199907       0.05652288       0.00000000
Si      -0.40729887      -0.35188029      -2.41130037       0.00000000
Si       1.71888822      -1.17494883       1.34250407       0.00000000
Si      -1.89468990       2.26220859       1.27409426       0.00000000
Si       1.17693621      -2.14402464      -2.28184584       0.00000000
Si       2.00397951       2.91858156       1.45092523       0.00000000
Si       0.08470800       1.60964748      -3.64719886       0.00000000
Si       0.97819821      -3.28634460       2.04236011       0.00000000
Si      -1.53183015      -0.11057652       3.73242852       0.00000000
