10
Lattice="16.28999089631971 0.0 0.0 0.0 16.28999089631971 0.0 0.0 0.0 34.25627252547053" Properties=species:S:1:pos:R:3:initial_magmoms:R:1 pbc="T T T"
Si      -1.35285242       1.35873821      -1.35887858       0.00000000
Si      -1.35685976      -1.35696673       1.35757684       0.00000000
Si       1.35828644       1.35854599       1.35696023       0.00000000
Si       1.35921171      -1.35655948      -1.35983775       0.00000000
Si       0.01032935      -2.70983494      -2.70266726       0.00000000
Si      -2.71365386      -0.00005438       2.71450281       0.00000000
Si      -2.71406111      -2.71475452       0.00095918       0.00000000
Si      -2.71583672       2.71386259      -0.00034256       0.00000000
Si       0.00089229      -2.71475452       2.71508517       0.00000000
Si       0.00129690       2.71545901       2.71463983       0.00000000
