10
Lattice="16.28999089631971 0.0 0.0 0.0 16.28999089631971 0.0 0.0 0.0 34.25627252547053" Properties=species:S:1:pos:R:3:initial_magmoms:R:1 pbc="T T T"
Si      -1.35679410       1.35691235       1.35692597       0.00000000
Si       1.35685976       1.35696673      -1.35757684       0.00000000
Si      -1.35720135      -1.35778779      -1.35661766       0.00000000
Si       1.35775205      -1.35778779       1.35750833       0.00000000
Si      -2.71572219       0.00324171      -2.71104292       0.00000000
Si      -0.00148239      -2.71477737      -2.71231041       0.00000000
Si      -0.00074934      -2.71407690       2.71422876       0.00000000
Si      -2.71443528      -0.00091224       2.71460558       0.00000000
Si       0.00091224       2.71465912       2.71446855       0.00000000
Si       2.71472103       0.00048870       2.71453706       0.00000000
