10
Lattice="16.28999089631971 0.0 0.0 0.0 16.28999089631971 0.0 0.0 0.0 34.25627252547053" Properties=species:S:1:pos:R:3:initial_magmoms:R:1 pbc="T T T"
Si      -1.34615673       1.25978715       1.42530153       0.00000000
Si      -1.35930276      -1.34586351      -1.36096821       0.00000000
Si       1.34998488       1.36912889      -1.35733704       0.00000000
Si       1.34896850      -1.47080781       1.57921505       0.00000000
Si       0.66303558       2.07653421       2.49368675       0.00000000
Si       2.44904742       0.44893611       2.51646719       0.00000000
Si      -2.39192586      -0.39024324       2.72621846       0.00000000
Si      -0.77638140      -2.29405554       2.88366038       0.00000000
Si      -0.00781920      -2.69967654      -2.71868208       0.00000000
Si       2.71359213      -2.71166598       0.01503851       0.00000000
