10
Lattice="16.28999089631971 0.0 0.0 0.0 16.28999089631971 0.0 0.0 0.0 34.25627252547053" Properties=species:S:1:pos:R:3:initial_magmoms:R:1 pbc="T T T"
Si       2.29049196       0.38758797       0.25640834       0.00000000
Si      -1.15618275       1.67040918       1.15638964       0.00000000
Si      -0.38250549       0.11440467      -2.34045836       0.00000000
Si      -0.61949241      -1.95457194       1.22599842       0.00000000
Si      -0.64777185       3.65281163      -0.02582924       0.00000000
Si       0.47969163      -1.89729630      -3.17994304       0.00000000
Si       2.62976542       0.80391150       2.54866810       0.00000000
Si      -3.45875796       1.18688940       0.94804287       0.00000000
Si       1.28252799      -2.66958891       2.38982168       0.00000000
Si      -2.64339459      -0.35921079      -2.75526780       0.00000000
