10
Lattice="16.28999089631971 0.0 0.0 0.0 16.28999089631971 0.0 0.0 0.0 34.25627252547053" Properties=species:S:1:pos:R:3:initial_magmoms:R:1 pbc="T T T"
Si      -1.79585847       1.08051570      -0.93266180       0.00000000
Si       1.62927693      -0.05095512      -1.72661987       0.00000000
Si      -1.19053836      -1.96546995       0.62168318       0.00000000
Si       0.58499019       1.24836786       2.01971670       0.00000000
Si       0.61071210      -3.09858606       1.72353680       0.00000000
Si       3.53129733      -0.76597209      -0.56279662       0.00000000
Si       0.75396636      -1.62759906      -3.24098775       0.00000000
Si      -3.63457593       0.61449138       0.43258845       0.00000000
Si       2.73681774      -2.63243142       0.69279924       0.00000000
Si      -1.20998862       3.09050622      -2.00457542       0.00000000
