10
Lattice="16.28999089631971 0.0 0.0 0.0 16.28999089631971 0.0 0.0 0.0 34.25627252547053" Properties=species:S:1:pos:R:3:initial_magmoms:R:1 pbc="T T T"
Si      -1.35757804       1.35764118      -1.35661766       0.00000000
Si      -1.35764320      -1.35767376       1.35743981       0.00000000
Si       1.35742643       1.35785295       1.35778238       0.00000000
Si       1.35890556      -1.35824391      -1.35757684       0.00000000
Si      -0.00052344       2.71384884      -2.71498240       0.00000000
Si       2.71466850      -0.00008145      -2.71443430       0.00000000
Si      -2.71435585       2.71477737       0.00013703       0.00000000
Si      -2.71477939      -2.71469592      -0.00041108       0.00000000
Si       2.71499430      -2.71476108      -0.00020554       0.00000000
Si      -0.00073024       2.71388142       2.71624988       0.00000000
