10
Lattice="16.28999089631971 0.0 0.0 0.0 16.28999089631971 0.0 0.0 0.0 34.25627252547053" Properties=species:S:1:pos:R:3:initial_magmoms:R:1 pbc="T T T"
Si       1.35708732       1.35628911       1.35678894       0.00000000
Si      -1.35784481      -1.35747828       1.35723428       0.00000000
Si      -1.35783829       1.35700587      -1.35778238       0.00000000
Si       1.35731538      -1.35824391      -1.35791940       0.00000000
Si       2.71099809       0.00092853       2.71813398       0.00000000
Si      -0.00040725       2.71414206      -2.71518793       0.00000000
Si      -2.71508094       2.71428867      -0.00023979       0.00000000
Si       2.71467963       2.71495656      -0.00075364       0.00000000
Si       2.71463076      -2.71534752      -0.00044533       0.00000000
Si       2.71503801      -0.00083079      -2.71532496       0.00000000
