10
Lattice="16.28999089631971 0.0 0.0 0.0 16.28999089631971 0.0 0.0 0.0 34.25627252547053" Properties=species:S:1:pos:R:3:initial_magmoms:R:1 pbc="T T T"
Si      -1.89219590       0.10513566      -1.40156192       0.00000000
Si      -0.76950702      -1.85341104       1.35463080       0.00000000
Si       0.54309231       2.06648424       1.29019471       0.00000000
Si       1.71600489      -1.81120365      -0.80772910       0.00000000
Si       3.08974059      -0.42811749      -2.30383838       0.00000000
Si       0.30729456      -1.82143377       3.50942006       0.00000000
Si      -3.84508250       0.98665272      -0.26349940       0.00000000
Si      -0.14476923      -3.99150612       0.34132969       0.00000000
Si      -0.14006142      -3.53563047      -2.05568581       0.00000000
Si      -3.11507873      -2.14228161       1.60206399       0.00000000
