10
Lattice="16.28999089631971 0.0 0.0 0.0 16.28999089631971 0.0 0.0 0.0 34.25627252547053" Properties=species:S:1:pos:R:3:initial_magmoms:R:1 pbc="T T T"
Si      -0.19692981       0.40151592      -2.21987621       0.00000000
Si       1.89219590      -0.10513566       1.40156192       0.00000000
Si      -1.95288660       0.88151706       1.13806252       0.00000000
Si       0.60551396      -2.10320190      -2.30027573       0.00000000
Si       1.12268888      -1.95854670       2.75619272       0.00000000
Si      -3.73633209       0.31493457      -0.25633983       0.00000000
Si      -2.11689432      -0.10329489       3.27068796       0.00000000
Si      -1.22288283      -2.24741727       3.00362591       0.00000000
Si      -2.23797789      -3.21201333       1.02964136       0.00000000
Si       1.75213448      -3.64076613      -0.65412389       0.00000000
