10
Lattice="16.28999089631971 0.0 0.0 0.0 16.28999089631971 0.0 0.0 0.0 34.25627252547053" Properties=species:S:1:pos:R:3:initial_magmoms:R:1 pbc="T T T"
Si      -2.18119027       0.73492335       0.13493553       0.00000000
Si       0.30120210      -1.79434350      -1.45236400       0.00000000
Si       1.62569313       1.63830159      -0.73123480       0.00000000
Si       0.73060650      -1.39082391       1.84370787       0.00000000
Si       1.97159499       2.14547445       1.55228960       0.00000000
Si       2.64140721      -1.92005343      -0.79029265       0.00000000
Si      -0.17796825       2.36999952       2.61430316       0.00000000
Si       3.22066332       0.18363717      -1.64954321       0.00000000
Si      -3.27874369      -1.10128545       1.15022351       0.00000000
Si      -1.98874836       2.82779739       1.19133106       0.00000000
