10
Lattice="16.28999089631971 0.0 0.0 0.0 16.28999089631971 0.0 0.0 0.0 34.25627252547053" Properties=species:S:1:pos:R:3:initial_magmoms:R:1 pbc="T T T"
Si       2.18119027      -0.73492335      -0.13493553       0.00000000
Si      -0.79940731       0.31687308      -2.16883434       0.00000000
Si       0.19244191       2.09287404       1.05639552       0.00000000
Si      -1.09755341      -1.83620880       1.01528797       0.00000000
Si      -2.61592869       1.70290773      -1.72302296       0.00000000
Si       2.00322203       1.63507617       2.47936762       0.00000000
Si      -1.89962481      -2.99770209      -1.00066054       0.00000000
Si      -3.00762174      -0.96673005       2.06692187       0.00000000
Si      -1.96250421      -1.55333295      -2.95347470       0.00000000
Si       2.48239237      -2.52926685      -1.58729953       0.00000000
