10
Lattice="16.28999089631971 0.0 0.0 0.0 16.28999089631971 0.0 0.0 0.0 34.25627252547053" Properties=species:S:1:pos:R:3:initial_magmoms:R:1 pbc="T T T"
Si      -1.35850139      -1.35628911       1.35672043       0.00000000
Si       1.35724265      -1.35728280      -1.35754258       0.00000000
Si       1.35696898       1.35827649       1.35702874       0.00000000
Si      -1.35775205       1.35778779      -1.35750833       0.00000000
Si      -2.70998495      -0.00247608       2.71443430       0.00000000
Si      -2.71495340       0.00000000      -2.71412599       0.00000000
Si       2.71516239       0.00263898       2.71398896       0.00000000
Si      -2.71454615       2.71470014      -0.00058236       0.00000000
Si       2.71508094      -2.71428867       0.00023979       0.00000000
Si      -2.71454615      -2.71484253      -0.00017128       0.00000000
