10
Lattice="16.28999089631971 0.0 0.0 0.0 16.28999089631971 0.0 0.0 0.0 34.25627252547053" Properties=species:S:1:pos:R:3:initial_magmoms:R:1 pbc="T T T"
Si      -1.35819341       1.35563751      -1.35696023       0.00000000
Si       1.35700587      -1.36063854      -1.35696023       0.00000000
Si       1.36430379       1.34009685       1.37511606       0.00000000
Si      -1.35225245      -1.37091753       1.37645206       0.00000000
Si      -2.71585970       2.70987734       0.00407650       0.00000000
Si       0.00061902       2.71249124      -2.71402322       0.00000000
Si       2.71091664      -2.71599912       0.00438481       0.00000000
Si       2.71783989       2.71092407       0.00332286       0.00000000
Si       2.71459818      -0.00197109      -2.71450281       0.00000000
Si      -2.71516239      -0.00263898      -2.71398896       0.00000000
