10
Lattice="10.86 0.0 0.0 0.0 10.86 0.0 0.0 0.0 10.86" Properties=species:S:1:pos:R:3:initial_magmoms:R:1 pbc="T T T"
Si       1.37273658       1.26961002       1.29807408       0.00000000
Si      -1.34226342       1.26961002      -1.41692592       0.00000000
Si      -1.38143544      -1.53091248       1.18194810       0.00000000
Si       1.37273658      -1.44538998      -1.41692592       0.00000000
Si       0.01523658       2.62711002       2.65557408       0.00000000
Si      -2.69976342       2.62711002      -0.05942592       0.00000000
Si       2.73023658       2.62711002      -0.05942592       0.00000000
Si       0.01523658       2.62711002      -2.77442592       0.00000000
Si      -2.66154708      -0.04013856       2.75281452       0.00000000
Si      -2.69976342      -0.08788998      -2.77442592       0.00000000
