10
Lattice="10.86 0.0 0.0 0.0 10.86 0.0 0.0 0.0 10.86" Properties=species:S:1:pos:R:3:initial_magmoms:R:1 pbc="T T T"
Si      -1.23952782       1.31277852      -1.19010396       0.00000000
Si       1.36392912      -1.31096490      -1.24446912       0.00000000
Si      -1.23952782      -1.40222148       1.52489604       0.00000000
Si       1.47547218       1.31277852       1.52489604       0.00000000
Si      -2.59702782      -0.04472148      -2.54760396       0.00000000
Si       0.15618852       2.71802994      -2.45036352       0.00000000
Si      -2.59702782       2.67027852       0.16739604       0.00000000
Si      -2.59702782      -2.75972148       0.16739604       0.00000000
Si       2.63164950       2.73113796       0.16884042       0.00000000
Si       2.80626744      -2.65776780       0.09223398       0.00000000
