10
Lattice="10.86 0.0 0.0 0.0 10.86 0.0 0.0 0.0 10.86" Properties=species:S:1:pos:R:3:initial_magmoms:R:1 pbc="T T T"
Si      -1.70469420      -0.94114932       0.88892358       0.00000000
Si       1.01030580       1.77385068       0.88892358       0.00000000
Si       1.01030580      -0.94114932      -1.82607642       0.00000000
Si      -0.34719420      -2.29864932       2.24642358       0.00000000
Si       2.36780580       0.41635068       2.24642358       0.00000000
Si       2.36780580      -2.29864932      -0.46857642       0.00000000
Si      -0.32283522      -2.34335994      -2.83152780       0.00000000
Si      -3.06219420       0.41635068       2.24642358       0.00000000
Si      -3.08889894      -2.19669564      -0.54373848       0.00000000
Si       1.01030580      -0.94114932       3.60392358       0.00000000
