10
Lattice="10.86 0.0 0.0 0.0 10.86 0.0 0.0 0.0 10.86" Properties=species:S:1:pos:R:3:initial_magmoms:R:1 pbc="T T T"
Si       1.35750000       1.35750000       1.35750000       0.00000000
Si      -1.35750000       1.35750000      -1.35750000       0.00000000
Si       1.35750000      -1.35750000      -1.35750000       0.00000000
Si      -1.35750000      -1.35750000       1.35750000       0.00000000
Si      -1.99137648       2.47287630       0.68240982       0.00000000
Si      -0.28573746       2.55162216       2.51097318       0.00000000
Si       2.65171878      -2.67236364      -0.04663284       0.00000000
Si      -0.24665232      -2.45990946       2.88633822       0.00000000
Si      -2.63149746      -2.75015382       0.01348812       0.00000000
Si       2.71500000       0.00000000       2.71500000       0.00000000
