10
Lattice="10.86 0.0 0.0 0.0 10.86 0.0 0.0 0.0 10.86" Properties=species:S:1:pos:R:3:initial_magmoms:R:1 pbc="T T T"
Si      -0.14119086       1.35262386      -2.04518778       0.00000000
Si      -1.82480580       0.60901794       1.60277310       0.00000000
Si       0.99342936      -1.95567966       1.32600600       0.00000000
Si      -1.75067544      -2.01129372      -0.97329492       0.00000000
Si      -3.07097994       2.10357114       0.39559722       0.00000000
Si      -0.35597994       2.10357114       3.11059722       0.00000000
Si      -1.71485916       3.22269414      -1.19831412       0.00000000
Si      -3.07097994      -0.61142886      -2.31940278       0.00000000
Si       2.35902006      -0.61142886       3.11059722       0.00000000
Si      -1.90406208       0.76090590      -3.49082754       0.00000000
