10
Lattice="10.86 0.0 0.0 0.0 10.86 0.0 0.0 0.0 10.86" Properties=species:S:1:pos:R:3:initial_magmoms:R:1 pbc="T T T"
Si       1.35187452       1.56248250       0.82554462       0.00000000
Si      -1.14833640      -1.90346478       1.09975962       0.00000000
Si       1.35187452      -1.15251750      -1.88945538       0.00000000
Si      -1.36312548       1.56248250      -1.88945538       0.00000000
Si      -2.72200470      -0.03339450       1.94663328       0.00000000
Si       2.92758450       0.37632072       2.00293152       0.00000000
Si      -0.00562548       2.91998250       2.18304462       0.00000000
Si       2.58912174      -2.51996526      -0.80563824       0.00000000
Si      -2.91120762      -2.49518274      -0.34588014       0.00000000
Si       2.70937452       2.91998250      -0.53195538       0.00000000
