10
Lattice="10.86 0.0 0.0 0.0 10.86 0.0 0.0 0.0 10.86" Properties=species:S:1:pos:R:3:initial_magmoms:R:1 pbc="T T T"
Si       1.35750000       1.35750000       1.35750000       0.00000000
Si       1.35750000      -1.35750000      -1.35750000       0.00000000
Si      -1.35750000       1.35750000      -1.35750000       0.00000000
Si      -1.35750000      -1.35750000       1.35750000       0.00000000
Si       2.52441786       0.01483476      -2.52892476       0.00000000
Si       2.60367414      -0.13705320       2.56467588       0.00000000
Si       2.71362078       2.47662300      -0.23641134       0.00000000
Si      -2.55795354      -0.00687438       2.78578548       0.00000000
Si      -2.49679002       2.88633822      -0.18011310       0.00000000
Si       0.00000000       2.71500000       2.71500000       0.00000000
