10
Lattice="10.86 0.0 0.0 0.0 10.86 0.0 0.0 0.0 10.86" Properties=species:S:1:pos:R:3:initial_magmoms:R:1 pbc="T T T"
Si       1.20045354       1.36437438       1.28671452       0.00000000
Si       1.20045354      -1.35062562      -1.42828548       0.00000000
Si      -1.51454646      -1.35062562       1.28671452       0.00000000
Si       2.55795354       0.00687438       2.64421452       0.00000000
Si       2.55795354      -2.70812562      -0.07078548       0.00000000
Si       2.55795354       2.72187438      -0.07078548       0.00000000
Si       2.55795354       0.00687438      -2.78578548       0.00000000
Si      -0.15704646      -2.70812562       2.64421452       0.00000000
Si      -0.15704646       2.72187438       2.64421452       0.00000000
Si      -2.87204646       0.00687438       2.64421452       0.00000000
