10
Lattice="16.290000149 0.0 0.0 0.0 16.290000149 0.0 0.0 0.0 29.1751946751" Properties=species:S:1:pos:R:3:initial_magmoms:R:1 pbc="T T T"
Si      -1.52306614       1.30992615       1.20061761       0.00000000
Si       1.41361363       1.27791630      -1.38366278       0.00000000
Si      -1.22639266      -1.44349112      -1.42126961       0.00000000
Si       0.98756497      -0.84424718       1.98875632       0.00000000
Si      -0.07802910       2.63484074       2.41095056       0.00000000
Si       1.12055653      -3.13877515       1.72407895       0.00000000
Si      -0.75753388      -1.20318593       3.47578682       0.00000000
Si      -2.67794570      -0.13935118       2.70141880       0.00000000
Si      -2.56735289      -2.82566505      -0.10739389       0.00000000
Si       0.06537177       2.60625178      -2.79247458       0.00000000
