10
Lattice="16.290000149 0.0 0.0 0.0 16.290000149 0.0 0.0 0.0 29.1751946751" Properties=species:S:1:pos:R:3:initial_magmoms:R:1 pbc="T T T"
Si       1.35514882       1.36764325       1.33782855       0.00000000
Si      -1.32760406       1.36161595      -1.37385992       0.00000000
Si       1.38619756      -1.35479370      -1.33298547       0.00000000
Si      -1.34775642      -1.35190385       1.37753599       0.00000000
Si       2.71070489       0.00026064       2.67390659       0.00000000
Si      -2.69625566      -0.00798210      -2.69969746       0.00000000
Si       0.06050106      -2.69027723       2.70871260       0.00000000
Si       0.03042972      -2.71694396      -2.68461389       0.00000000
Si      -2.69430086       2.71166600      -0.02313593       0.00000000
Si      -0.02381598       2.71267598       2.69567129       0.00000000
