10
Lattice="16.290000149 0.0 0.0 0.0 16.290000149 0.0 0.0 0.0 29.1751946751" Properties=species:S:1:pos:R:3:initial_magmoms:R:1 pbc="T T T"
Si       1.44295844       1.42027624       1.16694944       0.00000000
Si       1.43383930      -1.25636626      -1.36758725       0.00000000
Si      -1.30593673       1.41907078      -1.35016966       0.00000000
Si      -1.64985122      -1.04402611       1.43317309       0.00000000
H        0.25636551      -2.71614575       1.69618747       0.00000000
H       -1.05402817       1.39036780       2.81523123       0.00000000
Si      -0.02316438       2.49856022       2.60651189       0.00000000
Si      -2.57971700       2.52749126       0.29577812       0.00000000
Si      -3.33255936       0.65306611       1.66426980       0.00000000
Si      -2.68635134       0.02756268      -2.67087237       0.00000000
