10
Lattice="16.290000149 0.0 0.0 0.0 16.290000149 0.0 0.0 0.0 29.1751946751" Properties=species:S:1:pos:R:3:initial_magmoms:R:1 pbc="T T T"
Si      -1.65045395       1.57692088      -0.24979802       0.00000000
Si       1.11558808      -1.07377165      -1.76714154       0.00000000
Si      -1.68660146      -1.47098701       0.74691416       0.00000000
Si       1.79924681       0.97171480       1.23139744       0.00000000
H       -0.91484641       0.79226416       2.34063834       0.00000000
H       -0.78679072       3.01342197       0.00542659       0.00000000
H       -1.54162045       1.20586726       2.51140076       0.00000000
Si       2.45048843      -2.45884520      -0.37484290       0.00000000
Si       3.48195495      -0.72537742       1.00030072       0.00000000
Si      -0.71581519      -3.33195663       1.64125058       0.00000000
