10
Lattice="16.290000149 0.0 0.0 0.0 16.290000149 0.0 0.0 0.0 29.1751946751" Properties=species:S:1:pos:R:3:initial_magmoms:R:1 pbc="T T T"
Si       1.01718019      -0.01233153      -1.13351466       0.00000000
H       -1.07351101      -1.88876036      -0.40725654       0.00000000
H        2.03862836       0.28939185       1.26454046       0.00000000
Si      -1.61069005      -2.13063428       0.98545055       0.00000000
Si       0.21250305       1.36743148      -2.80146054       0.00000000
Si       1.35920503       2.83955228       0.29084752       0.00000000
H       -2.65342925      -0.99274519      -1.56355703       0.00000000
Si      -2.46834227      -0.25835940       2.10767441       0.00000000
Si       1.37826433      -2.15031260      -2.02808448       0.00000000
Si       2.94725199       1.29057526      -0.79111458       0.00000000
