10
Lattice="16.290000149 0.0 0.0 0.0 16.290000149 0.0 0.0 0.0 29.1751946751" Properties=species:S:1:pos:R:3:initial_magmoms:R:1 pbc="T T T"
Si      -1.46708393      -1.37956753       1.21873541       0.00000000
Si       1.33722982      -1.33084414      -1.40892850       0.00000000
Si      -1.34445118       1.35413884      -1.38800989       0.00000000
Si       1.41947803       1.39064473       1.29902554       0.00000000
Si      -0.10666692       2.65820222       2.51323879       0.00000000
Si      -0.04365720      -2.59794551       2.59399573       0.00000000
Si       2.76014505       2.68022630      -0.07766437       0.00000000
Si      -2.79816591      -0.07320726       2.64642356       0.00000000
Si      -0.00917127       2.70293456      -2.76032352       0.00000000
Si       2.75775042      -2.70141959      -0.15623317       0.00000000
