10
Lattice="16.290000149 0.0 0.0 0.0 16.290000149 0.0 0.0 0.0 29.1751946751" Properties=species:S:1:pos:R:3:initial_magmoms:R:1 pbc="T T T"
Si      -1.25069734       1.10646731      -1.60349787       0.00000000
Si      -1.89566732      -0.01243742       1.33826618       0.00000000
Si       0.42319791      -2.29149640       0.29595317       0.00000000
Si       1.57623670       1.68701033       0.43952431       0.00000000
H        1.85139110       0.59988414      -2.36345335       0.00000000
H       -2.07324461       1.37647406       1.94540198       0.00000000
Si      -1.06217317      -1.25664156       3.05129065       0.00000000
Si       2.04077864      -2.45757295      -1.37873217       0.00000000
Si       0.84406636       2.32528512       2.61786484       0.00000000
Si      -2.58737330       2.65067787      -0.44786841       0.00000000
