10
Lattice="16.290000149 0.0 0.0 0.0 16.290000149 0.0 0.0 0.0 29.1751946751" Properties=species:S:1:pos:R:3:initial_magmoms:R:1 pbc="T T T"
Si       1.21603222      -1.41167512       1.45100147       0.00000000
Si      -1.47880621      -1.25719705      -1.37902393       0.00000000
Si      -1.48027231       1.30089889       1.33984164       0.00000000
Si       1.61733637       1.49033139      -0.93334365       0.00000000
H        0.98953606      -0.99883765      -3.48669834       0.00000000
Si       2.55484217      -2.76915342       0.10505988       0.00000000
H        3.02816442      -0.70944580      -2.22215788       0.00000000
Si       0.88656697       3.68000877      -0.53323503       0.00000000
Si      -2.79498936      -2.61552242       0.10835667       0.00000000
Si      -0.18391410       2.58584204       2.84661791       0.00000000
