10
Lattice="16.290000149 0.0 0.0 0.0 16.290000149 0.0 0.0 0.0 29.1751946751" Properties=species:S:1:pos:R:3:initial_magmoms:R:1 pbc="T T T"
Si       1.54025209      -1.27555588      -1.19069805       0.00000000
Si       1.39654171       1.31963662       1.36705043       0.00000000
Si      -1.21577158      -1.43580061       1.44456017       0.00000000
Si      -1.46557873       1.21044475      -1.46453642       0.00000000
H        0.36253395      -1.82962766      -2.23464486       0.00000000
Si      -2.66502773       2.67809231      -0.02611180       0.00000000
Si       2.85367929       2.50035212      -0.05108577       0.00000000
Si      -2.64743453      -0.06530661       2.73058816       0.00000000
Si      -0.13489749       2.53662995      -2.87343575       0.00000000
Si       0.06654465       2.75890701       2.68291881       0.00000000
