10
Lattice="16.290000149 0.0 0.0 0.0 16.290000149 0.0 0.0 0.0 29.1751946751" Properties=species:S:1:pos:R:3:initial_magmoms:R:1 pbc="T T T"
H       -1.01718019       0.01233153       1.13351466       0.00000000
Si      -0.80467714       1.37976301      -1.66794588       0.00000000
Si       0.36108414      -2.13798107      -0.89456982       0.00000000
Si       1.93007180       1.30290679       0.34240008       0.00000000
H        1.02144817       0.30172338       2.39805513       0.00000000
H       -2.09069120      -1.87642883       0.72625812       0.00000000
Si       0.34202484       2.85188381       1.42436218       0.00000000
Si      -0.21668958       0.33619302      -3.66067003       0.00000000
Si      -1.62623071      -2.86870161      -1.91126700       0.00000000
Si       1.92598301      -2.03558213      -2.59921809       0.00000000
