10
Lattice="16.290000149 0.0 0.0 0.0 16.290000149 0.0 0.0 0.0 29.1751946751" Properties=species:S:1:pos:R:3:initial_magmoms:R:1 pbc="T T T"
Si       1.13599131      -0.96516622      -0.29326906       0.00000000
Si      -1.90621672       1.67211965      -0.26301438       0.00000000
H       -1.15003491      -1.80403607       1.92130327       0.00000000
Si      -1.52397187       1.40574556       2.09469145       0.00000000
Si      -0.16410742      -2.66866040      -1.43048897       0.00000000
Si       2.43143565      -0.81078589       1.72845523       0.00000000
Si       2.60469609       0.23310990      -1.68763914       0.00000000
Si      -0.25636551       2.71614575      -1.69618747       0.00000000
Si      -1.07752812      -0.73052506       2.98386386       0.00000000
Si      -2.93768324      -0.06134814      -1.63815801       0.00000000
