10
Lattice="16.290000149 0.0 0.0 0.0 16.290000149 0.0 0.0 0.0 29.1751946751" Properties=species:S:1:pos:R:3:initial_magmoms:R:1 pbc="T T T"
Si       1.30420999      -1.43311276       1.28878505       0.00000000
Si      -1.34516305      -1.39101940      -1.32076106       0.00000000
Si       1.38979765       1.32796081      -1.34448050       0.00000000
Si      -1.29202507       1.35622396       1.42655032       0.00000000
Si       2.64604988      -0.08079840       2.59344141       0.00000000
Si      -2.65432683       2.69742854       0.06088863       0.00000000
Si       0.02458161       2.68376123      -2.67746597       0.00000000
Si      -2.68016766      -0.03033198      -2.68370946       0.00000000
Si       0.04787631      -2.74041786      -2.65155839       0.00000000
Si      -2.62981038      -0.03733668       2.76808412       0.00000000
