10
Lattice="16.290000149 0.0 0.0 0.0 16.290000149 0.0 0.0 0.0 29.1751946751" Properties=species:S:1:pos:R:3:initial_magmoms:R:1 pbc="T T T"
Si       1.38774511       1.35948196      -1.30328512       0.00000000
Si       1.38289069      -1.34610787       1.33496938       0.00000000
Si      -1.31743747       1.37104786       1.38853504       0.00000000
Si      -1.33059979      -1.34552143      -1.41479272       0.00000000
Si       0.01749546       2.71905189      -2.61774434       0.00000000
Si       0.01728369      -2.69039126       2.67909978       0.00000000
Si      -2.67654639      -2.69320943      -0.04554248       0.00000000
Si      -2.66350788       2.73151700       0.03299715       0.00000000
Si       2.71176374       0.00773775      -2.68738553       0.00000000
Si      -2.69287549       0.02316438       2.73885058       0.00000000
