10
Lattice="16.290000149 0.0 0.0 0.0 16.290000149 0.0 0.0 0.0 29.1751946751" Properties=species:S:1:pos:R:3:initial_magmoms:R:1 pbc="T T T"
Si       1.41608971      -1.34468934       1.25334011       0.00000000
Si      -1.49868001       1.23483088       1.27989245       0.00000000
Si      -1.03964410      -1.85484458      -0.95035571       0.00000000
Si       0.86659543       1.72708211      -1.38378153       0.00000000
H       -2.05071554       0.77827105      -2.05624438       0.00000000
Si      -1.87313825      -0.61064043      -2.66338018       0.00000000
Si      -0.07977213       2.66507660       2.51475007       0.00000000
Si       2.64692954      -2.54576864      -0.34461448       0.00000000
Si      -0.83999386       3.39498264      -1.25734294       0.00000000
Si      -0.04509072      -2.78057271       2.46844904       0.00000000
