10
Lattice="16.290000149 0.0 0.0 0.0 16.290000149 0.0 0.0 0.0 29.1751946751" Properties=species:S:1:pos:R:3:initial_magmoms:R:1 pbc="T T T"
Si      -1.34807896       1.36681246      -1.30179719       0.00000000
Si       1.38412873       1.34371324       1.29858791       0.00000000
Si       1.36899532      -1.33990138      -1.33205186       0.00000000
Si      -1.34589610      -1.30316743       1.39381575       0.00000000
H       -0.42744960      -2.18621576       2.20619905       0.00000000
Si       2.62555706      -0.17946693       2.54171378       0.00000000
Si      -2.65507454      -0.06571386      -2.62465886       0.00000000
Si      -2.55104660       2.77047291       0.16924530       0.00000000
Si       2.61048881      -2.72763020       0.04122455       0.00000000
Si      -2.49693122       0.12592170       2.85100002       0.00000000
