10
Lattice="16.290000149 0.0 0.0 0.0 16.290000149 0.0 0.0 0.0 29.1751946751" Properties=species:S:1:pos:R:3:initial_magmoms:R:1 pbc="T T T"
Si       1.34952877      -1.34641738      -1.36531159       0.00000000
Si      -1.35637057      -1.36099693       1.35346646       0.00000000
Si      -1.35356869       1.33253830      -1.38663865       0.00000000
Si       1.36805050       1.33768594       1.36773313       0.00000000
Si      -0.00680922       2.68566716       2.70287756       0.00000000
Si      -2.71880102       0.00737937       2.68368028       0.00000000
Si       2.68503185      -2.72166806      -0.01117410       0.00000000
Si      -0.00837306      -2.71163342      -2.69628397       0.00000000
Si      -2.73268011       2.67735926      -0.06325182       0.00000000
Si       2.71376741       2.71287146       0.00866503       0.00000000
