10
Lattice="16.290000149 0.0 0.0 0.0 16.290000149 0.0 0.0 0.0 29.1751946751" Properties=species:S:1:pos:R:3:initial_magmoms:R:1 pbc="T T T"
Si       1.39153254      -1.34923555       1.32785064       0.00000000
Si       1.37543802       1.34788348      -1.35031554       0.00000000
Si      -1.31433623      -1.36686133      -1.39375740       0.00000000
Si      -1.37038812       1.34097652       1.37867382       0.00000000
Si       0.03125074      -2.69988833       2.67860380       0.00000000
Si      -2.66308108      -2.72041373      -0.03734425       0.00000000
Si      -2.70364318       2.70735567       0.00854833       0.00000000
Si       0.02936761       2.70835262      -2.70585343       0.00000000
Si      -2.68274311      -0.01034415      -2.73482440       0.00000000
Si       2.71015918      -2.71355564      -0.05975080       0.00000000
