10
Lattice="16.290000149 0.0 0.0 0.0 16.290000149 0.0 0.0 0.0 29.1751946751" Properties=species:S:1:pos:R:3:initial_magmoms:R:1 pbc="T T T"
Si      -1.93007180      -1.30290679      -0.34240008       0.00000000
Si       0.55117215       1.27448074      -1.92229523       0.00000000
H       -0.90862363      -1.00118341       2.05565504       0.00000000
Si       1.94966867      -1.46720773       0.31949756       0.00000000
Si      -1.58804695       1.54897702       1.08196209       0.00000000
H       -2.94725199      -1.29057526       0.79111458       0.00000000
Si       0.22651245       2.86733325       1.68629708       0.00000000
Si      -2.73474893       0.07685622      -2.01034596       0.00000000
Si       0.00022806      -1.82667917       2.94897033       0.00000000
Si       1.62893485      -0.30188628      -3.25428874       0.00000000
