10
Lattice="16.290000149 0.0 0.0 0.0 16.290000149 0.0 0.0 0.0 29.1751946751" Properties=species:S:1:pos:R:3:initial_magmoms:R:1 pbc="T T T"
Si      -1.68270815       1.69709222       0.23109672       0.00000000
Si       0.38224485      -0.26637408       2.35770583       0.00000000
Si       1.64985122       1.04402611      -1.43317309       0.00000000
Si      -1.03146652      -1.73346779      -1.37514363       0.00000000
H        1.90621672      -1.67211965       0.26301438       0.00000000
H        0.59582305       2.43439391       1.38205815       0.00000000
H       -1.05153580       0.02184489       2.82450895       0.00000000
Si      -2.36636687      -0.34839423      -2.76744227       0.00000000
Si      -3.48195495       0.72537742      -1.00030072       0.00000000
Si       0.34391448       2.46309689      -2.78334275       0.00000000
