10
Lattice="16.290000149 0.0 0.0 0.0 16.290000149 0.0 0.0 0.0 29.1751946751" Properties=species:S:1:pos:R:3:initial_magmoms:R:1 pbc="T T T"
Si      -1.32020677      -1.34131861      -1.39373406       0.00000000
Si       1.35513253       1.31398399      -1.40066900       0.00000000
Si      -1.38018655       1.35915616       1.33488186       0.00000000
Si       1.35180937      -1.36790389       1.35609222       0.00000000
Si       2.69928560       2.68410332      -0.03859878       0.00000000
Si      -2.69577185      -2.70247844      -0.03358065       0.00000000
Si      -0.01915704       2.71331129       2.68799821       0.00000000
Si       0.09881514      -2.72363915      -2.67761184       0.00000000
Si       2.69812901      -0.01024641       2.71857381       0.00000000
Si      -0.02091636       2.66479967      -2.76041688       0.00000000
