10
Lattice="16.290000149 0.0 0.0 0.0 16.290000149 0.0 0.0 0.0 29.1751946751" Properties=species:S:1:pos:R:3:initial_magmoms:R:1 pbc="T T T"
Si       1.37714032      -1.33942897      -1.32682950       0.00000000
Si      -1.18954794      -1.52013394       1.31857292       0.00000000
Si       1.53616330       1.31211064       1.19093145       0.00000000
Si      -1.03731952       1.54906498      -1.47547712       0.00000000
H        2.73411362      -0.74482768      -1.05474164       0.00000000
Si       0.12240306       2.49147407       2.66109868       0.00000000
Si      -1.40700315      -3.37704735      -0.10940698       0.00000000
Si       2.31707333       2.80950537      -0.51946434       0.00000000
Si       0.90041347      -3.54906975      -0.72007298       0.00000000
Si       0.89396263      -0.92211175      -3.53836761       0.00000000
