10
Lattice="16.290000149 0.0 0.0 0.0 16.290000149 0.0 0.0 0.0 29.1751946751" Properties=species:S:1:pos:R:3:initial_magmoms:R:1 pbc="T T T"
Si       1.83340694       1.02131785      -0.94099047       0.00000000
Si       1.40638087      -1.36482508       1.25255529       0.00000000
Si      -1.31999500       1.48847156       1.20923305       0.00000000
Si      -1.30238551      -1.18631926      -1.55326169       0.00000000
Si       0.99991279       2.26552200      -2.65401494       0.00000000
Si      -2.67072923       0.09361863       2.51886377       0.00000000
Si      -2.62444934      -2.58778055      -0.20963544       0.00000000
Si       0.05049900      -2.70505226       2.56770305       0.00000000
Si       2.74422972      -2.51875982      -0.30542928       0.00000000
Si       2.82796032       0.09558972       2.47781427       0.00000000
