10
Lattice="16.290000149 0.0 0.0 0.0 16.290000149 0.0 0.0 0.0 29.1751946751" Properties=species:S:1:pos:R:3:initial_magmoms:R:1 pbc="T T T"
Si      -1.35588187      -1.34022718       1.31514776       0.00000000
Si      -1.40638087       1.36482508      -1.25255529       0.00000000
Si       1.33784884      -1.15393474      -1.55798457       0.00000000
Si       1.42157944       1.46041480       1.22525898       0.00000000
Si       0.42702606       2.38614293      -2.19354576       0.00000000
Si       2.16999092       0.84271429      -2.64965034       0.00000000
Si       0.07701912      -2.66014073       2.59777684       0.00000000
Si      -2.65794158      -2.63599895      -0.16212072       0.00000000
Si      -2.69195510       0.10106316       2.60451631       0.00000000
Si       2.76547188      -2.52061688      -0.22393421       0.00000000
