10
Lattice="16.290000149 0.0 0.0 0.0 16.290000149 0.0 0.0 0.0 29.1751946751" Properties=species:S:1:pos:R:3:initial_magmoms:R:1 pbc="T T T"
Si      -1.61758072       0.16607655       1.67468535       0.00000000
Si       0.84577681       1.93300400      -1.00774040       0.00000000
Si       1.77634307      -1.15398361       1.02577067       0.00000000
Si      -1.56831976      -0.77050072      -1.59156522       0.00000000
H       -0.18938754       3.05745710      -0.98472117       0.00000000
Si      -2.04077864       2.45757295       1.37873217       0.00000000
Si       0.62082820      -2.80013700       2.19598773       0.00000000
Si       1.13070520       1.20071962      -3.21496058       0.00000000
Si      -2.48137427      -2.61566903      -0.43103433       0.00000000
Si      -0.39941451      -0.63190540      -3.64357336       0.00000000
