10
Lattice="16.290000149 0.0 0.0 0.0 16.290000149 0.0 0.0 0.0 29.1751946751" Properties=species:S:1:pos:R:3:initial_magmoms:R:1 pbc="T T T"
Si       0.17757729      -1.38891148      -0.60713580       0.00000000
Si      -0.69670702       1.82737964       1.92302752       0.00000000
Si      -0.51412869       1.27420381      -2.39327039       0.00000000
Si      -2.53588061       0.94488517       0.73826663       0.00000000
Si      -2.45418626       0.25093116      -1.49061905       0.00000000
Si       1.21072168       2.61671159       0.79890144       0.00000000
Si       2.05071554      -0.77827105       2.05624438       0.00000000
Si       1.01107144      -2.63311562       1.10588867       0.00000000
Si       2.91731097       0.94881106       0.67246285       0.00000000
Si       2.07324461      -1.37647406      -1.94540198       0.00000000
