10
Lattice="16.290000149 0.0 0.0 0.0 16.290000149 0.0 0.0 0.0 29.1751946751" Properties=species:S:1:pos:R:3:initial_magmoms:R:1 pbc="T T T"
Si       0.54563355      -0.64547497       2.09474980       0.00000000
Si       1.87792751       0.88150078      -1.01663883       0.00000000
Si      -0.88383025      -1.86986396      -1.04555145       0.00000000
Si      -1.53617959       1.81869707       0.16874933       0.00000000
H        1.40929678       0.79102612       2.34997441       0.00000000
H        2.51682131       1.67422106       0.08154467       0.00000000
Si      -2.24875307      -0.54403713      -2.37424817       0.00000000
Si       0.61064695       2.18206181      -2.48447205       0.00000000
Si      -3.40794948       0.90427420      -0.93830344       0.00000000
Si      -1.52342452      -0.97586875       3.22648478       0.00000000
