10
Lattice="16.290000149 0.0 0.0 0.0 16.290000149 0.0 0.0 0.0 29.1751946751" Properties=species:S:1:pos:R:3:initial_magmoms:R:1 pbc="T T T"
Si       1.44772001      -1.34485354       1.28041177       0.00000000
Si      -1.25810929      -1.37051029      -1.45350820       0.00000000
Si       1.37813401       1.32550102      -1.38847669       0.00000000
Si      -1.42643386       1.28295154       1.41447179       0.00000000
Si       0.10544517      -2.76341934       2.57333970       0.00000000
Si      -2.69368184       2.67093612      -0.01557955       0.00000000
Si      -0.03121164       2.69672645       2.67962493       0.00000000
Si      -2.70982523      -0.32130396       2.67507360       0.00000000
Si      -2.59553459      -2.81975016      -0.19888730       0.00000000
Si       2.74577401       2.69744809      -0.05531617       0.00000000
