10
Lattice="16.290000149 0.0 0.0 0.0 16.290000149 0.0 0.0 0.0 29.1751946751" Properties=species:S:1:pos:R:3:initial_magmoms:R:1 pbc="T T T"
Si       0.96337432      -1.45811791      -1.50984550       0.00000000
Si      -1.67163095       0.92960515      -1.33184764       0.00000000
Si       1.50436522       1.28992366       1.27446003       0.00000000
Si      -1.26918649      -1.48006054       1.32376611       0.00000000
H       -1.13445190       1.17147907      -2.72455473       0.00000000
Si      -0.93087577      -2.95156884      -1.82756337       0.00000000
Si      -2.64806984      -2.50525541      -0.30978222       0.00000000
Si      -2.57170232      -0.04976595       2.62284504       0.00000000
Si       0.16555527       2.64740195       2.62040162       0.00000000
Si       2.54096309      -2.73256608      -0.40095470       0.00000000
