10
Lattice="16.290000149 0.0 0.0 0.0 16.290000149 0.0 0.0 0.0 29.1751946751" Properties=species:S:1:pos:R:3:initial_magmoms:R:1 pbc="T T T"
Si      -0.13299156       2.29452797       0.26467737       0.00000000
Si       1.60127443       0.02728575      -1.77709028       0.00000000
Si       0.35481249      -0.85155976       2.25392966       0.00000000
Si      -2.13612401      -0.99953812      -0.63718625       0.00000000
H        0.86682349      -2.92674288       0.44763501       0.00000000
H        2.45669492      -1.95129767       0.57399278       0.00000000
Si      -1.87809041       1.93558922       1.75170786       0.00000000
Si      -1.88340095      -0.22555134       2.72563421       0.00000000
Si       3.14317182      -1.09836955      -0.44810182       0.00000000
Si      -1.03935088      -2.41890212      -2.11838171       0.00000000
