10
Lattice="16.290000149 0.0 0.0 0.0 16.290000149 0.0 0.0 0.0 29.1751946751" Properties=species:S:1:pos:R:3:initial_magmoms:R:1 pbc="T T T"
Si       1.36052452       1.36137160      -1.34555998       0.00000000
Si      -1.36440154      -1.35562123      -1.34844832       0.00000000
Si       1.35040843      -1.37430586       1.34506400       0.00000000
Si      -1.37295379       1.36436896       1.33447340       0.00000000
Si      -0.02197521       2.69931818      -2.69718840       0.00000000
Si       2.72960130      -0.01708821      -2.66938444       0.00000000
Si       0.00555489      -2.71904537      -2.68513904       0.00000000
Si       2.72626184      -0.03264516       2.68070441       0.00000000
Si      -0.02031363       2.72292239       2.68543079       0.00000000
Si      -2.71487513      -2.70400970       0.02739551       0.00000000
