10
Lattice="16.290000149 0.0 0.0 0.0 16.290000149 0.0 0.0 0.0 29.1751946751" Properties=species:S:1:pos:R:3:initial_magmoms:R:1 pbc="T T T"
Si       1.29635821       1.28494316       1.50677627       0.00000000
Si      -1.33667596      -1.36350136       1.40717215       0.00000000
Si       1.48027231      -1.30089889      -1.33984164       0.00000000
Si      -1.35609364       1.38766464      -1.39652904       0.00000000
Si       0.00146610      -2.55809594      -2.71886557       0.00000000
Si      -2.60907158       2.73258660       0.08777532       0.00000000
Si       2.69630453      -2.71257401       0.11115983       0.00000000
Si       2.36683928       2.37910989      -1.87307667       0.00000000
Si       2.28514493       3.07306389       0.35580900       0.00000000
Si       3.09760869       0.18943250      -2.27318529       0.00000000
