10
Lattice="16.290000149 0.0 0.0 0.0 16.290000149 0.0 0.0 0.0 29.1751946751" Properties=species:S:1:pos:R:3:initial_magmoms:R:1 pbc="T T T"
Si      -1.36052452      -1.36137160       1.34555998       0.00000000
Si       1.35405739       1.35366643       1.36076025       0.00000000
Si       1.36907677      -1.37845981      -1.32382446       0.00000000
Si      -1.38249973       1.33794658      -1.35162842       0.00000000
Si       2.71414208      -0.04212594       2.66588341       0.00000000
Si      -0.01905930       2.69954624      -2.68122957       0.00000000
Si      -0.00399105      -2.70518258      -2.68758976       0.00000000
Si      -2.73347831       0.00299736       2.68003338       0.00000000
Si       2.72921034       2.69563664       0.01747594       0.00000000
Si      -0.01011609      -2.73567747       2.69062398       0.00000000
