10
Lattice="16.290000149 0.0 0.0 0.0 16.290000149 0.0 0.0 0.0 29.1751946751" Properties=species:S:1:pos:R:3:initial_magmoms:R:1 pbc="T T T"
H        0.53717904       0.24187392      -1.39270709       0.00000000
Si       1.67163095      -0.92960515       1.33184764       0.00000000
Si      -0.85765222       1.87227488       1.12222386       0.00000000
Si      -1.80851582      -1.58736277      -0.11098244       0.00000000
H        1.61069005       2.13063428      -0.98545055       0.00000000
H       -1.04273920       1.13788909      -2.54900758       0.00000000
H       -0.15291423      -0.69532237      -3.06138235       0.00000000
Si      -2.17383536       0.51394950       2.60960446       0.00000000
Si       2.63500526      -2.38772306      -0.17799786       0.00000000
Si       0.40244445      -2.40966569       2.65561375       0.00000000
