10
Lattice="16.290000149 0.0 0.0 0.0 16.290000149 0.0 0.0 0.0 29.1751946751" Properties=species:S:1:pos:R:3:initial_magmoms:R:1 pbc="T T T"
Si       1.27878293      -1.37459908       1.38563503       0.00000000
Si      -1.34438406      -1.21536824      -1.48189858       0.00000000
Si      -1.43327697       1.30600189       1.35229653       0.00000000
Si       1.33614002       1.40665780      -1.35327798       0.00000000
Si      -1.62772777       0.61204789      -3.04904416       0.00000000
Si      -0.29720617       2.59258610      -2.56601964       0.00000000
Si       2.60853564      -2.68943015      -0.03388115       0.00000000
Si      -2.82611792      -2.52178976      -0.11188104       0.00000000
Si      -0.07148378       2.70185942       2.66993585       0.00000000
Si       2.57890413      -0.04725077       2.81187317       0.00000000
