10
Lattice="16.290000149 0.0 0.0 0.0 16.290000149 0.0 0.0 0.0 29.1751946751" Properties=species:S:1:pos:R:3:initial_magmoms:R:1 pbc="T T T"
H       -1.17771814      -0.55407178      -1.04394682       0.00000000
Si      -1.54025209       1.27555588       1.19069805       0.00000000
Si       1.14116338      -1.49954338       1.38494153       0.00000000
Si       1.66328721       0.79013017      -1.45339150       0.00000000
Si      -2.47533068      -1.09338481      -1.97478140       0.00000000
Si       3.07809327      -1.16214490      -1.45639654       0.00000000
Si      -0.14371038       2.59519250       2.55774847       0.00000000
Si       2.64563286      -0.11406258       2.55217017       0.00000000
Si       2.77564987       2.49377096      -0.20279678       0.00000000
Si       2.40333214      -2.92532565       0.05560792       0.00000000
