10
Lattice="16.290000149 0.0 0.0 0.0 16.290000149 0.0 0.0 0.0 29.1751946751" Properties=species:S:1:pos:R:3:initial_magmoms:R:1 pbc="T T T"
Si       2.20257092      -0.38136519       0.80541042       0.00000000
Si       0.04647537       2.29382750       0.66732423       0.00000000
Si       0.14260266      -0.41604660      -2.35893119       0.00000000
Si      -1.52036200      -1.37281044       1.28195805       0.00000000
H       -2.16546230      -0.20562867      -1.44539749       0.00000000
H       -0.88275511       2.45329031      -1.87768635       0.00000000
Si       0.48773889       2.04771818       2.95008745       0.00000000
Si      -0.72739738       1.65666044      -3.15208803       0.00000000
Si       2.12087657       0.31258881       3.03429610       0.00000000
Si       2.44032347      -0.35963433      -2.81280969       0.00000000
