10
Lattice="16.290000149 0.0 0.0 0.0 16.290000149 0.0 0.0 0.0 29.1751946751" Properties=species:S:1:pos:R:3:initial_magmoms:R:1 pbc="T T T"
Si       1.33068124       1.32618520      -1.40889933       0.00000000
Si      -1.19944900       1.46764756       1.43842462       0.00000000
Si       1.46557873      -1.21044475       1.46453642       0.00000000
Si      -1.56670705      -1.13238307      -1.45578386       0.00000000
H        1.82811269      -3.04007241      -0.77010844       0.00000000
Si      -0.18474489       2.63862164      -2.68321348       0.00000000
Si      -2.52801254       0.08635329       2.81574472       0.00000000
Si       2.91745758       2.45415368      -0.05619142       0.00000000
H        1.99505261       3.18702450       0.90956587       0.00000000
Si      -2.60330492       2.89010667       0.21963087       0.00000000
