10
Lattice="16.290000149 0.0 0.0 0.0 16.290000149 0.0 0.0 0.0 29.1751946751" Properties=species:S:1:pos:R:3:initial_magmoms:R:1 pbc="T T T"
Si      -1.37779192      -1.36381510      -1.30535656       0.00000000
Si      -1.38600208       1.31434237       1.35798861       0.00000000
Si       1.32872644      -1.36775728       1.37526033       0.00000000
Si       1.32465394       1.38637675      -1.38392536       0.00000000
Si      -2.69389361       0.02824686      -2.64732799       0.00000000
Si      -0.01646919       2.67641444       2.68490564       0.00000000
Si       2.68662827      -0.00254124       2.70623271       0.00000000
Si      -0.04992885      -2.72209160      -2.67177680       0.00000000
Si       2.75004525       0.02682963      -2.65453426       0.00000000
Si       2.69485472      -2.71383257       0.02459469       0.00000000
