10
Lattice="16.290000149 0.0 0.0 0.0 16.290000149 0.0 0.0 0.0 29.1751946751" Properties=species:S:1:pos:R:3:initial_magmoms:R:1 pbc="T T T"
Si      -1.34464177      -1.32711373      -1.40849087       0.00000000
Si      -1.38466630       1.34591239       1.35938902       0.00000000
Si       1.35514882       1.34255665      -1.39579966       0.00000000
Si       1.39039322      -1.35742942       1.34833162       0.00000000
Si      -2.68503185      -2.68014485      -0.04107867       0.00000000
Si       2.66334335      -2.72285723      -0.07121665       0.00000000
Si      -2.70726770       2.68739390      -0.06097616       0.00000000
Si       2.73552434       0.06198345       2.66267414       0.00000000
Si      -2.71453304      -0.07407063       2.69599221       0.00000000
Si      -0.00425169       2.73742050       2.68009173       0.00000000
