10
Lattice="16.290000149 0.0 0.0 0.0 16.290000149 0.0 0.0 0.0 29.1751946751" Properties=species:S:1:pos:R:3:initial_magmoms:R:1 pbc="T T T"
Si       1.35980776      -1.35413884      -1.35378738       0.00000000
Si      -1.35501850       1.34864911      -1.37038807       0.00000000
Si       1.36818082       1.36969579       1.33613639       0.00000000
Si      -1.35593074      -1.35555607       1.36309427       0.00000000
Si      -2.72621297       0.02738349       2.67384824       0.00000000
Si       0.00575037       2.73807209       2.66635022       0.00000000
Si       2.68384268      -2.72114678       0.03617724       0.00000000
Si      -2.71583624      -2.70241328      -0.00067103       0.00000000
Si       0.00197109      -2.69972543      -2.71866134       0.00000000
Si       2.71617833       0.01905930      -2.71361403       0.00000000
