10
Lattice="16.290000149 0.0 0.0 0.0 16.290000149 0.0 0.0 0.0 29.1751946751" Properties=species:S:1:pos:R:3:initial_magmoms:R:1 pbc="T T T"
Si       1.34594660       1.34768800      -1.36925024       0.00000000
Si       1.35168068      -1.35941680       1.35947655       0.00000000
Si      -1.33066533       1.34951248       1.39063565       0.00000000
Si      -1.36558908      -1.32932917      -1.37879053       0.00000000
Si       2.67654639       2.69320943       0.04554248       0.00000000
Si      -2.70754301      -2.68280012       0.00568916       0.00000000
Si      -2.69907221       2.70602966       0.04956866       0.00000000
Si       2.69383008       0.00281817       2.72464226       0.00000000
Si       2.69788629      -0.02182860      -2.72744307       0.00000000
Si      -0.01095177      -2.71772588      -2.70862507       0.00000000
