10
Lattice="16.290000149 0.0 0.0 0.0 16.290000149 0.0 0.0 0.0 29.1751946751" Properties=species:S:1:pos:R:3:initial_magmoms:R:1 pbc="T T T"
Si       0.53626355      -0.68909959       2.22883900       0.00000000
Si       1.19398859       2.04222845      -0.58195761       0.00000000
Si      -2.01961793       1.37243251       0.02684118       0.00000000
Si      -1.20728449      -1.59850513      -1.41490942       0.00000000
H       -0.99370630       1.10226286      -2.39055710       0.00000000
Si       2.20998287      -1.43498611      -1.04380094       0.00000000
H       -2.64106514      -1.31028616      -0.94810630       0.00000000
H       -1.59428602       2.67154373      -0.64372150       0.00000000
Si       0.03715749       2.21045528      -2.59927644       0.00000000
H        3.40511502      -1.07158879      -0.15112751       0.00000000
