10
Lattice="16.290000149 0.0 0.0 0.0 16.290000149 0.0 0.0 0.0 29.1751946751" Properties=species:S:1:pos:R:3:initial_magmoms:R:1 pbc="T T T"
Si       1.34438406       1.21536824       1.48189858       0.00000000
Si       1.17174916      -1.58981866      -1.28872670       0.00000000
Si      -1.48173385      -1.30642152       1.37001754       0.00000000
Si      -0.28334370       1.82741613      -1.56714558       0.00000000
Si       2.49426422      -0.16674053      -2.63341142       0.00000000
Si       2.68052409       2.62202604       0.12862060       0.00000000
Si       0.65329873       1.01123825      -3.55908200       0.00000000
Si      -0.08889290       2.52137013       2.83419511       0.00000000
Si       2.52855467      -2.83382081       0.16649525       0.00000000
Si       2.62316700      -0.15923084       2.86753361       0.00000000
