10
Lattice="16.290000149 0.0 0.0 0.0 16.290000149 0.0 0.0 0.0 29.1751946751" Properties=species:S:1:pos:R:3:initial_magmoms:R:1 pbc="T T T"
Si       1.36793647      -1.34214940       1.35431254       0.00000000
Si       1.37727064       1.35532801      -1.33225609       0.00000000
Si      -1.31970178       1.36870210       1.38372113       0.00000000
Si      -1.36508572      -1.36143676      -1.35404996       0.00000000
Si      -0.00488700       2.71566194      -2.65389241       0.00000000
Si      -0.01283652      -2.70296714       2.67402329       0.00000000
Si       2.72834697      -0.02054169      -2.68093781       0.00000000
Si      -2.68231142       0.01865205       2.73429925       0.00000000
Si      -2.70964604       2.71786924       0.05114412       0.00000000
Si       2.72205902      -2.71085150       0.00379278       0.00000000
