10
Lattice="16.290000149 0.0 0.0 0.0 16.290000149 0.0 0.0 0.0 29.1751946751" Properties=species:S:1:pos:R:3:initial_magmoms:R:1 pbc="T T T"
Si      -1.35697330      -0.59460130      -0.27208787       0.00000000
H        0.88982497      -1.83321146      -0.51237477       0.00000000
H        1.57991824      -0.89601517       1.15630049       0.00000000
Si       1.04273920      -1.13788909       2.54900758       0.00000000
Si      -2.73411362       0.74482768       1.05474164       0.00000000
Si      -1.84015100      -0.17728407      -2.48362597       0.00000000
Si       2.04437873      -1.88828795      -1.48122463       0.00000000
H        2.65342925       0.99274519       1.56355703       0.00000000
Si      -1.19795032       2.05693832       2.24567308       0.00000000
Si      -0.01037673       1.11120607      -3.12571366       0.00000000
