10
Lattice="16.290000149 0.0 0.0 0.0 16.290000149 0.0 0.0 0.0 29.1751946751" Properties=species:S:1:pos:R:3:initial_magmoms:R:1 pbc="T T T"
Si       1.56489886       0.10239894      -1.70464827       0.00000000
Si       1.25136523      -1.33872850       1.44860677       0.00000000
Si      -0.36108414       2.13798107       0.89456982       0.00000000
Si      -1.98731486      -0.73072054      -1.01669718       0.00000000
H        0.31009644      -2.91776709      -0.26969550       0.00000000
H       -2.45177534       0.26155224       1.62082794       0.00000000
H        2.79161733      -0.58780837      -1.13832857       0.00000000
H        1.06492618      -1.11021238      -2.77566967       0.00000000
H       -3.14186862      -0.67564405      -0.04784732       0.00000000
H       -1.37826433       2.15031260       2.02808448       0.00000000
