10
Lattice="16.290000149 0.0 0.0 0.0 16.290000149 0.0 0.0 0.0 29.1751946751" Properties=species:S:1:pos:R:3:initial_magmoms:R:1 pbc="T T T"
Si       0.92240497      -0.73287082      -0.96575729       0.00000000
Si      -1.05841018       1.72476893       0.81217323       0.00000000
Si      -1.89055226      -0.27188010       1.90383900       0.00000000
Si      -1.31600395       2.23334273      -1.48705967       0.00000000
Si       2.32420542      -1.89711713       0.50388479       0.00000000
Si      -0.66437137      -1.86083930      -2.31846520       0.00000000
Si       2.07791984       0.91328257      -2.13597435       0.00000000
Si       0.88519861       2.57727350       1.87401903       0.00000000
Si      -0.46292922      -1.63856224       3.23788936       0.00000000
Si      -3.19450161      -1.71937694       0.52885875       0.00000000
