10
Lattice="16.290000149 0.0 0.0 0.0 16.290000149 0.0 0.0 0.0 29.1751946751" Properties=species:S:1:pos:R:3:initial_magmoms:R:1 pbc="T T T"
Si       0.13299156      -2.29452797      -0.26467737       0.00000000
Si      -1.74509885      -0.35893875       1.48703050       0.00000000
Si      -0.98756497       0.84424718      -1.98875632       0.00000000
Si       1.83772379       1.17371080       1.01264183       0.00000000
H       -0.41277231       2.63318078       1.49353657       0.00000000
Si      -2.51063111       2.15417333      -0.78813871       0.00000000
Si       1.73426600      -2.26724222      -2.04176765       0.00000000
Si      -1.06559407       3.47908791       0.42219424       0.00000000
Si       0.48780405      -3.14608773       1.98925230       0.00000000
Si      -3.66551067       0.70489600       0.71266248       0.00000000
