10
Lattice="16.2900001489832 0.0 0.0 0.0 16.2900001489832 0.0 0.0 0.0 29.2244618014154" Properties=species:S:1:pos:R:3:initial_magmoms:R:1 pbc="T T T"
Si      -0.66966562      -2.14873247       0.40586933       0.00000000
Si      -1.65017702       1.05669973       1.22558625       0.00000000
Si      -0.08151516       0.67289104      -2.23491149       0.00000000
Si       2.23096928       0.18854046       0.70983295       0.00000000
Si       2.37188592       2.50877405       0.21444910       0.00000000
H       -2.62585028      -2.04809285      -1.20501223       0.00000000
Si       1.62054550       2.40282389      -2.11497430       0.00000000
Si      -1.18483687       0.28370664       3.45287016       0.00000000
Si       3.40705516      -1.21723768      -0.77737068       0.00000000
H       -3.55827360      -0.00633681      -1.17368361       0.00000000
