10
Lattice="16.2900001489832 0.0 0.0 0.0 16.2900001489832 0.0 0.0 0.0 29.2244618014154" Properties=species:S:1:pos:R:3:initial_magmoms:R:1 pbc="T T T"
Si       1.85427443      -1.35602848       0.06894051       0.00000000
Si      -0.42000507       0.50345874      -2.25130641       0.00000000
Si       0.47140002       1.78698044       1.44523731       0.00000000
Si      -1.57029085      -1.45072225       0.97747057       0.00000000
H        1.22569219      -2.65709450       0.52466676       0.00000000
Si      -2.91071352       1.99446617       0.14980459       0.00000000
Si      -2.54961308       1.40794471      -2.11479895       0.00000000
Si      -3.34008534       0.05717790       1.42705969       0.00000000
Si      -0.44821935      -2.33044742       2.84590731       0.00000000
Si       2.53061894       2.61842204       0.76354751       0.00000000
