10
Lattice="16.2900001489832 0.0 0.0 0.0 16.2900001489832 0.0 0.0 0.0 29.2244618014154" Properties=species:S:1:pos:R:3:initial_magmoms:R:1 pbc="T T T"
H        1.24844932      -0.47384027      -0.74665577       0.00000000
Si       0.34469640      -1.07758677       2.12935274       0.00000000
Si      -1.74511514      -0.66010664      -1.53890171       0.00000000
Si       0.39884436       2.41725357       0.33818547       0.00000000
Si       1.36021501       2.58414463      -1.85969863       0.00000000
Si      -1.96610528       2.71772263       0.85765028       0.00000000
Si      -1.20146896       1.64670399       2.85832771       0.00000000
Si       1.11767320       2.06229447       2.64627502       0.00000000
Si       2.29501667       0.64185533      -2.85058323       0.00000000
Si      -0.61089130      -2.11824085      -2.99641329       0.00000000
