10
Lattice="16.2900001489832 0.0 0.0 0.0 16.2900001489832 0.0 0.0 0.0 29.2244618014154" Properties=species:S:1:pos:R:3:initial_magmoms:R:1 pbc="T T T"
H        0.29955681       1.61564221      -0.27599582       0.00000000
Si       0.87141727       0.02555901       2.14446178       0.00000000
Si      -2.25906464      -0.48104370       0.21637792       0.00000000
Si       0.77786380      -1.58531023      -1.51935054       0.00000000
Si      -0.05520681       3.26891433       0.24747274       0.00000000
Si      -2.52327215      -1.46004013      -1.89660912       0.00000000
Si       2.98100487      -1.00403416      -1.69943168       0.00000000
Si       1.09481833      -2.16590213       2.77106347       0.00000000
Si      -1.67544281       2.75441097       1.85040525       0.00000000
Si      -0.66142288       1.31051422       3.42203835       0.00000000
