10
Lattice="16.2900001489832 0.0 0.0 0.0 16.2900001489832 0.0 0.0 0.0 29.2244618014154" Properties=species:S:1:pos:R:3:initial_magmoms:R:1 pbc="T T T"
Si       0.58225348       1.86992912       1.27219927       0.00000000
Si       0.76188331      -2.01243730       0.91072190       0.00000000
Si      -2.31914216      -0.41559048       0.21205269       0.00000000
Si      -0.71882884       0.35495910      -2.30808954       0.00000000
Si      -0.77297680      -3.13988124      -0.51692228       0.00000000
Si       0.00322542       2.72215676      -2.06108439       0.00000000
Si       2.88885234       1.43640334       1.13805899       0.00000000
Si      -1.11767320      -2.06229447      -2.64627502       0.00000000
Si      -3.08377848       0.65542816      -1.78862474       0.00000000
Si      -0.36351135       3.62296119       0.03968682       0.00000000
