10
Lattice="16.2900001489832 0.0 0.0 0.0 16.2900001489832 0.0 0.0 0.0 29.2244618014154" Properties=species:S:1:pos:R:3:initial_magmoms:R:1 pbc="T T T"
Si       1.12379824      -1.04220163      -1.77012565       0.00000000
Si      -1.17279856      -1.47030772       1.45195894       0.00000000
Si       1.45420831       1.39875715       1.25545365       0.00000000
Si      -1.33988509       1.58703697      -1.20501223       0.00000000
H        1.10983771      -2.99372736       0.03515703       0.00000000
Si       1.46983042       0.83955403      -3.21694108       0.00000000
Si       0.28292472       2.77379607      -2.44813317       0.00000000
Si      -2.72499122       0.01381392       2.57347688       0.00000000
Si      -0.49669839      -2.36253221      -2.91400031       0.00000000
Si       0.00664632       2.82543537       2.55062335       0.00000000
