10
Lattice="16.2900001489832 0.0 0.0 0.0 16.2900001489832 0.0 0.0 0.0 29.2244618014154" Properties=species:S:1:pos:R:3:initial_magmoms:R:1 pbc="T T T"
Si      -0.14091665      -2.32023359       0.49538385       0.00000000
Si       2.28210196       0.59489614       0.31001309       0.00000000
Si      -1.33422920       1.11768460       1.67409407       0.00000000
Si      -0.75134042      -0.10595016      -2.32942340       0.00000000
H        1.00534876       1.84176371      -2.44994508       0.00000000
H       -0.38720418       3.24783507      -0.97554176       0.00000000
Si      -2.37188592      -2.50877405      -0.21444910       0.00000000
Si       3.61788197      -0.90248230      -0.97863955       0.00000000
Si      -0.73876454       0.30302984       3.81843895       0.00000000
Si      -2.45340108      -1.83588302      -2.44936059       0.00000000
