10
Lattice="16.2900001489832 0.0 0.0 0.0 16.2900001489832 0.0 0.0 0.0 29.2244618014154" Properties=species:S:1:pos:R:3:initial_magmoms:R:1 pbc="T T T"
H        0.18384894      -1.46243476      -0.31050991       0.00000000
H       -1.96915151      -0.57853936      -0.74767863       0.00000000
Si      -0.00946449       0.85506211      -2.17073457       0.00000000
Si       1.86994541       0.81006913       1.14428380       0.00000000
Si      -1.40605507       0.10595016       1.88813403       0.00000000
H        2.71412579       1.06293880      -0.94102767       0.00000000
H        2.30161412      -0.97928965      -2.17199123       0.00000000
Si       3.10340793      -1.10545570       0.78271876       0.00000000
Si      -2.89445610      -1.76915918      -0.78458913       0.00000000
Si       1.69808591      -2.65408085       1.78105560       0.00000000
