10
Lattice="16.2900001489832 0.0 0.0 0.0 16.2900001489832 0.0 0.0 0.0 29.2244618014154" Properties=species:S:1:pos:R:3:initial_magmoms:R:1 pbc="T T T"
Si      -1.95444164      -1.09548622      -0.43269738       0.00000000
Si       1.86857705      -1.27281916       0.32369014       0.00000000
Si       0.15074766       1.49279932      -1.79227779       0.00000000
Si      -0.43036551       1.29702610       1.94900858       0.00000000
Si      -1.66521269       2.68954418      -0.84560980       0.00000000
Si      -3.15390693       0.88896160      -0.33736719       0.00000000
H        1.30548061      -1.95730868      -2.31212252       0.00000000
Si       2.90639667       0.39517911       1.60366312       0.00000000
Si       1.30637656       0.56602864       3.26381712       0.00000000
Si       2.92441341       2.32411061       0.24981070       0.00000000
