10
Lattice="16.2900001489832 0.0 0.0 0.0 16.2900001489832 0.0 0.0 0.0 29.2244618014154" Properties=species:S:1:pos:R:3:initial_magmoms:R:1 pbc="T T T"
H        0.22972500       0.46130022      -1.42799488       0.00000000
Si       0.87046430      -2.14242824       0.08270523       0.00000000
Si       1.73599274       1.16079283       1.10190833       0.00000000
Si      -2.41979807       0.23648193      -0.06271570       0.00000000
Si      -0.39058533      -2.79050961      -1.76696941       0.00000000
H       -1.72812467       0.42090102       2.81490016       0.00000000
Si      -1.00566316      -0.92892097      -3.10594658       0.00000000
Si       0.41736951       2.54886374       2.45780646       0.00000000
Si       0.17956467      -2.74139526       2.29815323       0.00000000
Si      -2.73070902       2.55754631      -0.07957821       0.00000000
