10
Lattice="16.2900001489832 0.0 0.0 0.0 16.2900001489832 0.0 0.0 0.0 29.2244618014154" Properties=species:S:1:pos:R:3:initial_magmoms:R:1 pbc="T T T"
Si      -1.12379824       1.04220163       1.77012565       0.00000000
Si      -1.62049663      -1.32033058      -1.14387466       0.00000000
Si       2.13006413      -1.09602542      -0.02241516       0.00000000
Si       0.34603218       1.88175566      -1.44681543       0.00000000
H       -0.01396053      -1.95152573       1.80528268       0.00000000
Si      -0.56220049      -1.28287498      -3.18920707       0.00000000
Si      -2.46368333       2.62923860       0.56511342       0.00000000
Si       0.08182467       0.90275923      -3.55980247       0.00000000
Si       3.69991515       0.19689723       1.10787012       0.00000000
Si       2.60509682       2.36279936      -1.66319335       0.00000000
