10
Lattice="16.2900001489832 0.0 0.0 0.0 16.2900001489832 0.0 0.0 0.0 29.2244618014154" Properties=species:S:1:pos:R:3:initial_magmoms:R:1 pbc="T T T"
Si      -0.10687869       1.94976641       1.27056270       0.00000000
Si       2.25179930      -0.31405491      -0.53524602       0.00000000
Si      -0.01801674      -1.92893150       1.35385242       0.00000000
Si      -0.79949692       0.39864888      -2.21033372       0.00000000
Si       2.52519437       1.89485282      -1.38605777       0.00000000
Si      -2.77366575      -0.83131129      -2.04208849       0.00000000
Si       1.56341647       3.26752968       0.27368708       0.00000000
Si       3.28041507      -0.16071714       1.57987441       0.00000000
Si       2.22016412      -2.89281081      -0.66997079       0.00000000
Si      -2.92441341      -2.32411061      -0.24981070       0.00000000
