10
Lattice="16.2900001489832 0.0 0.0 0.0 16.2900001489832 0.0 0.0 0.0 29.2244618014154" Properties=species:S:1:pos:R:3:initial_magmoms:R:1 pbc="T T T"
Si      -0.70263658      -0.01089801       2.21202874       0.00000000
Si      -0.58225348      -1.86992912      -1.27219927       0.00000000
Si      -0.94576483       1.75303208      -1.23251245       0.00000000
Si       2.30659886      -0.43352577      -0.13414028       0.00000000
H        2.13254021       2.05975649      -0.75843323       0.00000000
H       -0.02046024       2.94365190      -1.19560196       0.00000000
Si      -0.57902806       0.85222765      -3.33328366       0.00000000
Si       2.32876955      -2.28296207       1.27845331       0.00000000
Si      -3.06196617       0.16837344       2.01324395       0.00000000
Si       0.38964051       1.94797451       3.08686300       0.00000000
