10
Lattice="16.2900001489832 0.0 0.0 0.0 16.2900001489832 0.0 0.0 0.0 29.2244618014154" Properties=species:S:1:pos:R:3:initial_magmoms:R:1 pbc="T T T"
Si       0.86293018       0.74334529       1.02443428       0.00000000
Si      -1.85186351      -1.20140380      -1.04530055       0.00000000
Si      -0.47868165      -2.91252171      -0.07449315       0.00000000
Si      -0.69167341      -0.18441909      -2.87761586       0.00000000
Si       2.14549418       2.12796272      -0.35709370       0.00000000
Si      -0.53931304       2.03089061       2.41990233       0.00000000
Si       2.16277445      -0.71643421       2.35005587       0.00000000
Si       1.72812467      -0.42090102      -2.81490016       0.00000000
Si      -3.39275091      -0.12872358       0.48965586       0.00000000
Si       1.90768934      -3.16229628      -0.51674693       0.00000000
