10
Lattice="16.2900001489832 0.0 0.0 0.0 16.2900001489832 0.0 0.0 0.0 29.2244618014154" Properties=species:S:1:pos:R:3:initial_magmoms:R:1 pbc="T T T"
Si      -0.22972500      -0.46130022       1.42799488       0.00000000
Si       0.38987330       0.07252308      -2.42609792       0.00000000
Si      -1.23538816      -1.39022119      -1.67795170       0.00000000
Si       1.41679816       1.76871935      -1.15658730       0.00000000
Si      -2.64952308      -0.22481829       1.36527918       0.00000000
Si       1.50626773       0.69949261       2.52990321       0.00000000
Si       0.64073930      -2.60372846       1.51070010       0.00000000
Si      -0.31715343       3.16643394      -0.57428990       0.00000000
Si       2.81567423       1.61342677       0.73274493       0.00000000
Si      -0.62031034      -3.25180983      -0.33897453       0.00000000
