10
Lattice="16.2900001489832 0.0 0.0 0.0 16.2900001489832 0.0 0.0 0.0 29.2244618014154" Properties=species:S:1:pos:R:3:initial_magmoms:R:1 pbc="T T T"
Si      -0.04909806       1.13391433       0.99672949       0.00000000
H        0.93242332      -2.04175604      -0.03132862       0.00000000
Si      -0.05186736      -2.68377752      -0.99561896       0.00000000
Si      -1.35135325      -1.21023298      -2.24616291       0.00000000
Si       0.26285544       2.97668639      -0.53927899       0.00000000
Si      -1.84614572       0.51878763       2.39029796       0.00000000
Si       1.57341853       1.65894104      -2.10500876       0.00000000
Si       1.90809659       1.06303654       2.39926986       0.00000000
Si       0.64221697      -2.21190509       2.28801234       0.00000000
Si       0.14711499       0.22529070      -3.43852095       0.00000000
