10
Lattice="16.2900001489832 0.0 0.0 0.0 16.2900001489832 0.0 0.0 0.0 29.2244618014154" Properties=species:S:1:pos:R:3:initial_magmoms:R:1 pbc="T T T"
Si       1.25931475      -1.93152161      -0.46686078       0.00000000
Si       1.53486010       1.12744394       1.42764418       0.00000000
Si      -0.34469640       1.07758677      -2.12935274       0.00000000
Si      -2.12291282       0.20377959       1.17885634       0.00000000
H        0.90375292       0.60374650      -2.87600851       0.00000000
Si      -1.54616536       2.72429075       0.72897498       0.00000000
Si       0.77297680       3.13988124       0.51692228       0.00000000
Si      -0.34826391      -3.12675150      -1.66997342       0.00000000
Si      -2.55845855      -2.47220300      -1.17359594       0.00000000
Si      -2.98787925      -2.08112897       1.09688172       0.00000000
