10
Lattice="16.2900001489832 0.0 0.0 0.0 16.2900001489832 0.0 0.0 0.0 29.2244618014154" Properties=species:S:1:pos:R:3:initial_magmoms:R:1 pbc="T T T"
Si      -1.42894252      -1.31660668       1.33094336       0.00000000
Si      -1.29984427       1.45977949      -1.32562159       0.00000000
Si       1.32336215       1.39807297       1.37448489       0.00000000
Si       1.33092396      -1.38013768      -1.39123050       0.00000000
H       -2.16277445       0.71643421      -2.35005587       0.00000000
Si       2.67211388       0.11766267      -2.63744923       0.00000000
Si      -0.25508511      -2.44586207      -2.86680280       0.00000000
Si      -0.00912240      -2.70010010       2.65403411       0.00000000
Si       2.74064592       0.03350853       2.67090247       0.00000000
Si      -2.70208748       2.74732482       0.06984646       0.00000000
