10
Lattice="16.2900001489832 0.0 0.0 0.0 16.2900001489832 0.0 0.0 0.0 29.2244618014154" Properties=species:S:1:pos:R:3:initial_magmoms:R:1 pbc="T T T"
Si       1.42418584      -1.35754345       1.23020372       0.00000000
Si       1.37150398       1.30860829      -1.37240995       0.00000000
Si      -1.30632769      -1.39947391      -1.35057928       0.00000000
Si      -1.25520967       1.34837218       1.48162176       0.00000000
H        0.49469472      -2.24932322       2.03209373       0.00000000
Si      -2.69643648       2.63761166       0.09866178       0.00000000
Si       2.81724150      -0.02059056       2.53218272       0.00000000
Si      -0.00200367       2.66975183      -2.68862126       0.00000000
Si      -2.65446530      -2.71168229       0.03375425       0.00000000
Si      -2.72937486      -0.06274908      -2.65475011       0.00000000
