10
Lattice="16.2900001489832 0.0 0.0 0.0 16.2900001489832 0.0 0.0 0.0 29.2244618014154" Properties=species:S:1:pos:R:3:initial_magmoms:R:1 pbc="T T T"
Si      -0.83028502       2.17802189       0.15287316       0.00000000
Si       1.11198799      -1.19441539       1.70027919       0.00000000
Si      -1.88300999      -1.23308785      -0.70802104       0.00000000
Si       1.67426993       0.36642726      -1.62870848       0.00000000
H       -2.90344818      -0.89860528       0.35589550       0.00000000
H       -0.20909844      -1.55973493      -3.02926159       0.00000000
Si       0.41948379      -0.25866891      -3.48498785       0.00000000
Si       2.35455662      -2.64127691       0.32199512       0.00000000
Si      -0.96339061       2.88434001      -2.10869104       0.00000000
Si       3.41785380      -1.04669767      -1.07098885       0.00000000
