10
Lattice="16.2900001489832 0.0 0.0 0.0 16.2900001489832 0.0 0.0 0.0 29.2244618014154" Properties=species:S:1:pos:R:3:initial_magmoms:R:1 pbc="T T T"
Si      -1.34878416       1.41854950       1.30118994       0.00000000
Si      -1.39207793      -1.33113736      -1.36373029       0.00000000
Si       1.30256633       1.35519769      -1.42968990       0.00000000
Si       1.44122681      -1.28923948       1.38295998       0.00000000
Si       2.69643648      -2.63761166      -0.09866178       0.00000000
Si       0.04972034       2.72010422       2.67260626       0.00000000
Si       0.04655845      -2.62824491       2.78713692       0.00000000
Si      -2.74968524      -2.68234400       0.02910756       0.00000000
Si      -2.73686501       0.07452675      -2.70522076       0.00000000
Si       2.65152495       2.78689323      -0.16213731       0.00000000
