10
Lattice="16.2900001489832 0.0 0.0 0.0 16.2900001489832 0.0 0.0 0.0 29.2244618014154" Properties=species:S:1:pos:R:3:initial_magmoms:R:1 pbc="T T T"
Si      -1.31874393       1.36663327       1.34423757       0.00000000
Si      -1.42608053      -1.32709744      -1.29718619       0.00000000
Si       1.32221533       1.39579237      -1.34546500       0.00000000
Si       1.28587234      -1.36752922       1.41735717       0.00000000
Si       2.63483096       0.06416631       2.68490975       0.00000000
Si      -0.05908057      -2.73499328      -2.59121613       0.00000000
Si       2.70792419       0.01728369      -2.64738555       0.00000000
Si       2.67773882      -2.69058674       0.05976402       0.00000000
Si      -2.75355900      -2.64820016       0.14182631       0.00000000
Si       2.63131232       2.78640453       0.01703786       0.00000000
