10
Lattice="16.2900001489832 0.0 0.0 0.0 16.2900001489832 0.0 0.0 0.0 29.2244618014154" Properties=species:S:1:pos:R:3:initial_magmoms:R:1 pbc="T T T"
Si       1.38260399      -1.32496345       1.34309782       0.00000000
Si      -1.27063793      -1.36023130      -1.44325005       0.00000000
Si      -1.70537731       0.89057431       1.39456209       0.00000000
Si       1.42803680       1.40019230      -1.28368448       0.00000000
H        0.05131187       2.83828818       1.27404041       0.00000000
Si      -2.61618380      -2.64665261      -0.02869842       0.00000000
Si      -3.40743798      -0.83935855       1.27462490       0.00000000
Si      -2.67705953       2.63671571       0.09848644       0.00000000
Si       2.68293696      -2.66269826      -0.10257786       0.00000000
Si       2.66384508       0.09404217       2.74534594       0.00000000
