10
Lattice="16.2900001489832 0.0 0.0 0.0 16.2900001489832 0.0 0.0 0.0 29.2244618014154" Properties=species:S:1:pos:R:3:initial_magmoms:R:1 pbc="T T T"
Si       1.34154667      -1.36518346       1.32050731       0.00000000
Si      -1.30909699      -1.39061215      -1.36250286       0.00000000
Si       1.43549110       1.33602762      -1.29028921       0.00000000
Si      -1.25138152       1.34065235       1.48676527       0.00000000
Si      -2.62643184       2.69153156       0.10962096       0.00000000
Si       0.07765443       2.69790095      -2.66585541       0.00000000
Si      -2.69748719      -0.02313180      -2.67915254       0.00000000
Si       0.00351864      -2.72223821       2.66787189       0.00000000
Si      -2.63131232      -2.78640453      -0.01703786       0.00000000
Si       2.83178847      -0.04844646      -2.58452373       0.00000000
