10
Lattice="16.2900001489832 0.0 0.0 0.0 16.2900001489832 0.0 0.0 0.0 29.2244618014154" Properties=species:S:1:pos:R:3:initial_magmoms:R:1 pbc="T T T"
Si      -1.38260399       1.32496345      -1.34309782       0.00000000
Si       1.30033297      -1.33773481      -1.44567568       0.00000000
Si      -1.30147164      -1.40452381       1.38906789       0.00000000
Si       1.28124109       1.41900562       1.40224813       0.00000000
H        1.71795971      -1.46409634       2.10927553       0.00000000
Si       2.35928072      -0.21551670       2.67631776       0.00000000
Si       0.04543281       2.72515575      -2.62678230       0.00000000
Si      -2.47755753       0.00125433       2.87627153       0.00000000
Si      -3.08798130       2.21553776       0.05146428       0.00000000
Si      -2.69997614      -2.70607853       0.01765157       0.00000000
