10
Lattice="16.2900001489832 0.0 0.0 0.0 16.2900001489832 0.0 0.0 0.0 29.2244618014154" Properties=species:S:1:pos:R:3:initial_magmoms:R:1 pbc="T T T"
Si       1.36752922      -1.40732569      -1.27684596       0.00000000
Si       1.39808926       1.39877344       1.25852222       0.00000000
Si      -1.26752491      -1.35703846       1.43410279       0.00000000
Si      -1.36311463       1.36402687      -1.39134740       0.00000000
Si       0.01335780       2.76617235       2.54746711       0.00000000
Si       2.66786219      -0.00718389      -2.68102290       0.00000000
Si      -0.02376711      -2.68351363      -2.70437325       0.00000000
Si      -2.71063973      -2.67888890       0.07268124       0.00000000
Si       2.64077192       2.77871565      -0.15749062       0.00000000
Si      -2.71715573       2.72424188      -0.03331589       0.00000000
