10
Lattice="16.2900001489832 0.0 0.0 0.0 16.2900001489832 0.0 0.0 0.0 29.2244618014154" Properties=species:S:1:pos:R:3:initial_magmoms:R:1 pbc="T T T"
Si      -1.54668664      -1.25516080       1.22058887       0.00000000
Si       1.13422384      -1.45813420      -1.45751158       0.00000000
Si      -1.33938010       1.37283976      -1.44702000       0.00000000
Si       1.74511514       0.66010664       1.53890171       0.00000000
H        2.99356446       0.18626638       0.79224593       0.00000000
Si       2.61674417      -0.03660363      -2.68499743       0.00000000
Si      -2.88246666       0.24221764       2.50924151       0.00000000
Si      -0.46864701      -2.88968313       2.49465851       0.00000000
Si       1.83790298      -3.42046020      -0.31036378       0.00000000
Si      -2.82792774      -2.67416642      -0.18165925       0.00000000
