10
Lattice="16.2900001489832 0.0 0.0 0.0 16.2900001489832 0.0 0.0 0.0 29.2244618014154" Properties=species:S:1:pos:R:3:initial_magmoms:R:1 pbc="T T T"
Si       1.40313916      -1.26627547       1.43846892       0.00000000
Si      -1.36037791       1.25375986       1.50346120       0.00000000
Si      -0.90774397      -1.95292667      -1.05846646       0.00000000
Si       0.82609849       1.86922865      -1.31100848       0.00000000
H        0.58512052      -1.59267152      -2.80548696       0.00000000
Si      -2.48929121      -0.14490933      -2.35811890       0.00000000
Si       2.69211800      -2.61575048      -0.00425216       0.00000000
Si       2.60972318       2.71549415       0.06555631       0.00000000
Si      -2.66351276       2.66142764       0.15570209       0.00000000
Si      -2.74939365      -2.72367173       0.27825195       0.00000000
