10
Lattice="16.2900001489832 0.0 0.0 0.0 16.2900001489832 0.0 0.0 0.0 29.2244618014154" Properties=species:S:1:pos:R:3:initial_magmoms:R:1 pbc="T T T"
Si       1.39305565       1.34214940      -1.29482485       0.00000000
Si      -1.31227354      -1.29845962      -1.44270355       0.00000000
Si      -1.37907883       1.45645633       1.21974136       0.00000000
Si       1.37292121      -1.37982817       1.33248934       0.00000000
Si      -2.75116926       0.10024866       2.55600065       0.00000000
Si       0.04738761       2.80406289      -2.50082487       0.00000000
Si      -2.68192046      -2.65341296      -0.05935488       0.00000000
Si       0.01562211       2.72010422       2.62678230       0.00000000
Si       2.75493225      -0.01728369       2.67301540       0.00000000
Si       2.73036693      -2.70278795      -0.06782998       0.00000000
