10
Lattice="16.2900001489832 0.0 0.0 0.0 16.2900001489832 0.0 0.0 0.0 29.2244618014154" Properties=species:S:1:pos:R:3:initial_magmoms:R:1 pbc="T T T"
Si      -1.40667409       1.28529730       1.38629157       0.00000000
Si       1.31896873      -1.32059773       1.44386376       0.00000000
Si      -1.38443824      -1.31997871      -1.38655459       0.00000000
Si       1.33084414       1.28973796      -1.48007287       0.00000000
Si       2.59654457      -2.66082491      -0.07747405       0.00000000
Si      -2.72774423       2.64445346      -0.08667975       0.00000000
Si       2.70633917       2.66473451      -0.20445433       0.00000000
Si       0.01671354       2.62386290       2.75960748       0.00000000
Si      -0.17949951      -2.75612142       2.63622180       0.00000000
Si      -0.00737937       2.69793353      -2.77886640       0.00000000
