10
Lattice="16.2900001489832 0.0 0.0 0.0 16.2900001489832 0.0 0.0 0.0 29.2244618014154" Properties=species:S:1:pos:R:3:initial_magmoms:R:1 pbc="T T T"
Si       1.78362470       0.84626551       1.37656479       0.00000000
Si      -0.82609849      -1.86922865       1.31100848       0.00000000
Si       0.57111112      -0.03321531      -2.37892759       0.00000000
Si      -1.71533702       1.75428641       0.23569733       0.00000000
Si      -2.18647640      -0.61546879       2.81446968       0.00000000
Si       0.56498608       2.20991771       2.86411620       0.00000000
H       -0.24097797      -3.46190017      -1.49447848       0.00000000
Si      -0.80207074       1.67790260      -3.34973499       0.00000000
H        1.04979277       2.87930640      -2.30443444       0.00000000
Si      -3.48961125       0.79219900       1.46671057       0.00000000
