10
Lattice="16.2900001489832 0.0 0.0 0.0 16.2900001489832 0.0 0.0 0.0 29.2244618014154" Properties=species:S:1:pos:R:3:initial_magmoms:R:1 pbc="T T T"
Si      -1.34439742      -1.28453656      -1.42684636       0.00000000
Si      -1.37855755       1.33750675       1.35081307       0.00000000
Si       1.28200672       1.31373964      -1.47666822       0.00000000
Si       1.32252011      -1.36136346       1.39578952       0.00000000
Si       2.62062771      -2.71893134      -0.01683329       0.00000000
Si       2.66143905       2.67843440      -0.09033281       0.00000000
Si      -2.71101440      -0.06330294       2.68178274       0.00000000
Si      -2.74701531       2.64981287      -0.03790413       0.00000000
Si      -0.03588687       2.65536776       2.76440029       0.00000000
Si      -2.73487925      -2.69876432      -0.05681235       0.00000000
