10
Lattice="16.2900001489832 0.0 0.0 0.0 16.2900001489832 0.0 0.0 0.0 29.2244618014154" Properties=species:S:1:pos:R:3:initial_magmoms:R:1 pbc="T T T"
Si      -1.36130644       1.32006016      -1.36187453       0.00000000
Si       1.33001335       1.34252407       1.37542007       0.00000000
Si      -1.39056328      -1.41107239       1.27430343       0.00000000
Si       1.21863862      -1.36365220      -1.48755141       0.00000000
Si      -2.28032309      -0.45563130      -2.62841887       0.00000000
Si      -0.56498608      -2.20991771      -2.86411620       0.00000000
Si       2.64741824       2.68345172      -0.03212937       0.00000000
Si       2.68382688      -0.06571386       2.67693148       0.00000000
Si      -2.72787455       2.63386496       0.04730856       0.00000000
Si      -0.02210553      -2.72337851       2.66302063       0.00000000
