10
Lattice="16.2900001489832 0.0 0.0 0.0 16.2900001489832 0.0 0.0 0.0 29.2244618014154" Properties=species:S:1:pos:R:3:initial_magmoms:R:1 pbc="T T T"
Si       1.27205353      -1.36179514       1.45932934       0.00000000
Si      -1.45420831      -1.39875715      -1.25545365       0.00000000
Si       1.61326387       1.23235480      -1.26673430       0.00000000
Si      -1.44756199       1.42667821       1.29516970       0.00000000
Si      -2.79409341       0.18827982      -2.46046589       0.00000000
Si       2.60237639       0.02166570       2.80904650       0.00000000
Si      -2.62700687      -2.86906487       0.19650528       0.00000000
Si      -0.33041007      -2.44095878      -3.02557931       0.00000000
Si      -2.86459653       0.07975584       2.65984978       0.00000000
Si      -0.18888255       2.77138515       2.75210556       0.00000000
