10
Lattice="16.2900001489832 0.0 0.0 0.0 16.2900001489832 0.0 0.0 0.0 29.2244618014154" Properties=species:S:1:pos:R:3:initial_magmoms:R:1 pbc="T T T"
Si      -1.25692012       1.15279444      -1.57017188       0.00000000
Si      -0.05269815      -2.20051838      -0.82111970       0.00000000
Si       1.96670801       1.13235049      -0.72593563       0.00000000
Si      -0.83232127      -0.15574869       2.31159648       0.00000000
Si      -2.11191707      -3.03195999      -0.13942991       0.00000000
Si      -0.41518323       0.43605072      -3.67547289       0.00000000
Si      -0.77432887       3.45465291      -1.24811831       0.00000000
Si       1.52262631      -3.41304825       0.37001091       0.00000000
Si      -3.46006119       0.57151837      -1.39009075       0.00000000
Si       3.22775764       1.78043186       1.12373901       0.00000000
