10
Lattice="16.2900001489832 0.0 0.0 0.0 16.2900001489832 0.0 0.0 0.0 29.2244618014154" Properties=species:S:1:pos:R:3:initial_magmoms:R:1 pbc="T T T"
Si       1.39795894       1.33413472       1.34432524       0.00000000
Si       1.36226755      -1.34254036      -1.37989141       0.00000000
Si      -1.28150173       1.38274408      -1.42632908       0.00000000
Si      -1.36743148      -1.30735396       1.43924629       0.00000000
Si      -2.63313191       2.64320891       0.03664748       0.00000000
Si      -2.73070901      -0.04538394      -2.62081174       0.00000000
Si      -2.65865834      -2.71192664       0.01911280       0.00000000
Si       0.05318685       2.69424222       2.72561943       0.00000000
Si       2.71409957      -2.72779310      -0.02142153       0.00000000
Si       2.82143617      -0.03406239       2.62000222       0.00000000
