10
Lattice="16.2900001489832 0.0 0.0 0.0 16.2900001489832 0.0 0.0 0.0 29.2244618014154" Properties=species:S:1:pos:R:3:initial_magmoms:R:1 pbc="T T T"
Si      -0.45079317       2.27822168      -0.12364870       0.00000000
Si      -0.62815870      -0.79322527      -2.11573414       0.00000000
Si      -1.36296802      -1.12731688       1.56596356       0.00000000
Si       2.39906090       0.10052559       0.31202958       0.00000000
Si       1.36884871       3.07978743      -1.41145383       0.00000000
Si      -0.85625128       3.09435069       2.07315410       0.00000000
Si       0.06318891      -2.94982581      -2.46373903       0.00000000
Si      -0.15522741       0.68727511      -3.79315980       0.00000000
Si      -0.06382422      -2.30785319       3.11033025       0.00000000
Si       3.10559079       2.34878996      -0.09664530       0.00000000
