10
Lattice="16.2900001489832 0.0 0.0 0.0 16.2900001489832 0.0 0.0 0.0 29.2244618014154" Properties=species:S:1:pos:R:3:initial_magmoms:R:1 pbc="T T T"
Si       1.35307999       1.31545009      -1.28564252       0.00000000
Si      -1.39305565      -1.33695289      -1.30197900       0.00000000
Si       1.53145549      -1.38844558       1.15576902       0.00000000
Si      -0.92686843       1.78088798       1.29958259       0.00000000
H       -2.32254677      -2.22873266      -0.50008899       0.00000000
Si      -1.00061326       0.41034510       3.18117034       0.00000000
Si       1.16471872      -0.48764115       3.25654023       0.00000000
Si       2.41882067       2.70290198       0.30481114       0.00000000
Si       2.64556118      -0.09218511      -2.61769349       0.00000000
Si      -2.21154671      -1.48284613       2.61781039       0.00000000
