10
Lattice="16.2900001489832 0.0 0.0 0.0 16.2900001489832 0.0 0.0 0.0 29.2244618014154" Properties=species:S:1:pos:R:3:initial_magmoms:R:1 pbc="T T T"
H       -1.49653299      -0.45861237       0.59436710       0.00000000
Si       0.16053795      -1.49806099      -1.80440595       0.00000000
Si      -0.87114034       1.90456166      -1.16792639       0.00000000
Si       0.72006688      -0.45292716       2.29184074       0.00000000
Si      -2.51195060      -0.15068250       1.89131949       0.00000000
H       -1.91982702      -2.32165082       0.99889210       0.00000000
H        1.12886443       2.99538894       0.19492716       0.00000000
Si       2.42548328      -1.95712949      -1.47399418       0.00000000
Si      -2.40871061       0.86164327      -2.59051474       0.00000000
Si      -0.14346603       1.48910149       3.34126194       0.00000000
