10
Lattice="16.2900001489832 0.0 0.0 0.0 16.2900001489832 0.0 0.0 0.0 29.2244618014154" Properties=species:S:1:pos:R:3:initial_magmoms:R:1 pbc="T T T"
Si      -2.26764947      -0.33335856      -0.46504886       0.00000000
Si       0.42937182       1.93728827      -1.27725510       0.00000000
Si       0.09500328      -0.23892543       2.35078648       0.00000000
Si       1.76979449      -1.50790015      -0.44958912       0.00000000
Si      -1.19557198      -2.38861901       2.21901338       0.00000000
Si      -3.19323099       0.99636157       1.16892002       0.00000000
Si      -2.55291995      -2.51600681       0.23487700       0.00000000
Si       3.34008534      -0.05717790      -1.42705969       0.00000000
Si       1.72882514       1.37785708       2.94833905       0.00000000
H        1.87142780      -2.05314275       2.48276415       0.00000000
