10
Lattice="16.2900001489832 0.0 0.0 0.0 16.2900001489832 0.0 0.0 0.0 29.2244618014154" Properties=species:S:1:pos:R:3:initial_magmoms:R:1 pbc="T T T"
Si       1.30139182       0.67231600       1.77711030       0.00000000
Si       1.19778742       0.89973906      -1.75712077       0.00000000
Si       0.03181437      -2.29309445       0.32500524       0.00000000
Si      -2.12491649       0.89711474      -0.39435489       0.00000000
H        0.66933982       2.31914216      -1.64624316       0.00000000
H       -0.79389316       2.84666124      -0.04088502       0.00000000
Si      -3.09086463       0.71642280       1.72316194       0.00000000
Si       1.92378386      -2.94963033      -0.91262149       0.00000000
Si      -2.84996811      -0.12676878      -2.36709373       0.00000000
Si       3.21258351      -0.66331252       1.73900160       0.00000000
