10
Lattice="16.2900001489832 0.0 0.0 0.0 16.2900001489832 0.0 0.0 0.0 29.2244618014154" Properties=species:S:1:pos:R:3:initial_magmoms:R:1 pbc="T T T"
Si      -1.36542781       0.73113919      -1.71617729       0.00000000
Si      -1.62970048      -1.08913312       1.25177137       0.00000000
Si       1.05332770       1.83651344       1.04483296       0.00000000
Si       1.26377821      -1.88519285      -0.70746577       0.00000000
H        3.33596397       0.31309380      -0.37196895       0.00000000
Si      -1.24835158      -1.37916028      -2.82442734       0.00000000
Si       1.07631289      -1.29481066      -2.95839227       0.00000000
Si      -3.16436511       1.36875912      -0.28458781       0.00000000
Si       2.37469106       0.55205181       2.56906779       0.00000000
Si      -0.26090064      -2.39793689       2.63018987       0.00000000
