10
Lattice="10.86 0.0 0.0 0.0 10.86 0.0 0.0 0.0 10.86" Properties=species:S:1:pos:R:3:initial_magmoms:R:1 pbc="T T T"
Si       1.15295190       1.44375012      -1.26920820       0.00000000
Si       1.15295190      -1.27124988       1.44579180       0.00000000
Si      -1.56204810      -1.27124988      -1.26920820       0.00000000
Si       2.51045190       0.08625012      -2.62670820       0.00000000
Si       2.51045190      -2.62874988       0.08829180       0.00000000
Si      -0.20454810      -2.62874988      -2.62670820       0.00000000
Si       2.51045190       2.80125012       0.08829180       0.00000000
Si       2.51045190       0.08625012       2.80329180       0.00000000
Si      -0.20454810       2.80125012      -2.62670820       0.00000000
Si      -0.20454810      -2.62874988       2.80329180       0.00000000
