10
Lattice="10.86 0.0 0.0 0.0 10.86 0.0 0.0 0.0 10.86" Properties=species:S:1:pos:R:3:initial_magmoms:R:1 pbc="T T T"
Si      -1.34165526      -1.04991222      -1.53285642       0.00000000
Si      -1.34165526       1.66508778       1.18214358       0.00000000
Si       1.37334474       1.66508778      -1.53285642       0.00000000
Si       0.04254948      -2.55871374       2.47792620       0.00000000
Si      -2.69915526      -2.40741222      -0.17535642       0.00000000
Si      -2.69915526       0.30758778       2.53964358       0.00000000
Si       0.01584474      -2.40741222      -2.89035642       0.00000000
Si       2.71999560       0.55061286       2.54969994       0.00000000
Si       2.93539284      -2.49366234      -0.26364822       0.00000000
Si       0.01584474       3.02258778       2.53964358       0.00000000
