10
Lattice="16.28999089631971 0.0 0.0 0.0 16.28999089631971 0.0 0.0 0.0 34.56954931742767" Properties=species:S:1:pos:R:3:initial_magmoms:R:1 pbc="T T T"
Si       1.79049906       1.40985063       0.36163226       0.00000000
Si       0.28074186      -0.34845939      -2.26375363       0.00000000
Si       0.45898704      -1.99159911       1.15607551       0.00000000
Si      -2.24640729       0.92211174      -0.04165633       0.00000000
Si       1.54701243      -0.09252720       2.99296411       0.00000000
Si       0.57495555       3.34565649       0.85670305       0.00000000
Si      -0.67644225       1.51594740      -3.30699407       0.00000000
Si       2.53537560      -0.43976484      -2.76407900       0.00000000
Si      -2.80344384       0.95434965      -2.40417522       0.00000000
Si       3.02401044       1.62844614      -1.71990518       0.00000000
