10
Lattice="16.28999089631971 0.0 0.0 0.0 16.28999089631971 0.0 0.0 0.0 34.56954931742767" Properties=species:S:1:pos:R:3:initial_magmoms:R:1 pbc="T T T"
Si       0.79790049      -1.17695250       1.82579177       0.00000000
Si       1.19975850       1.49253867      -1.33002958       0.00000000
Si      -2.35426338       0.15563466       0.24796752       0.00000000
Si      -0.33397758      -1.02408714      -2.15586201       0.00000000
Si       1.99721916      -0.62174043      -2.39325124       0.00000000
Si      -0.29453949      -3.18642174       1.20388523       0.00000000
Si      -0.45804222      -3.16654794      -1.23651890       0.00000000
Si      -0.33769170      -0.10337634       3.54718344       0.00000000
Si      -0.62460747       2.82361086      -2.13076450       0.00000000
Si       3.12486183      -0.77805927       1.79550883       0.00000000
