10
Lattice="16.28999089631971 0.0 0.0 0.0 16.28999089631971 0.0 0.0 0.0 34.56954931742767" Properties=species:S:1:pos:R:3:initial_magmoms:R:1 pbc="T T T"
Si      -0.16066827       0.14390586       2.35086895       0.00000000
Si      -1.14225480       2.08459872      -0.02444069       0.00000000
Si      -0.89489115      -2.01565944      -0.95885613       0.00000000
Si       2.32849260       0.08651619      -0.60323897       0.00000000
Si       0.83062710       2.34517356       2.62645755       0.00000000
Si       0.33282099      -3.72645153       0.13990304       0.00000000
Si      -2.07638856       2.37100950      -2.11206237       0.00000000
Si       3.37813875      -1.69516998       0.54139401       0.00000000
Si       0.28403244       3.73027968       0.77909437       0.00000000
Si       0.79651584      -1.72050093       3.39410939       0.00000000
