10
Lattice="16.28999089631971 0.0 0.0 0.0 16.28999089631971 0.0 0.0 0.0 34.56954931742767" Properties=species:S:1:pos:R:3:initial_magmoms:R:1 pbc="T T T"
Si      -1.93811904      -1.14122853      -0.57098557       0.00000000
Si      -0.31030821       0.67023576       2.21466485       0.00000000
Si      -0.05465295       1.72656081      -1.58605181       0.00000000
Si       1.86419502      -1.26752490      -1.59462506       0.00000000
Si       1.45655406       2.37013214       2.26548211       0.00000000
Si       0.59277681      -1.23186609       3.36420671       0.00000000
Si      -2.78616015       0.95612526       2.21041279       0.00000000
Si      -1.14065838      -3.25550763      -1.63420722       0.00000000
Si      -3.76248501       0.18984366      -1.37172048       0.00000000
Si       1.26210033       3.67689150      -1.14777882       0.00000000
