10
Lattice="16.28999089631971 0.0 0.0 0.0 16.28999089631971 0.0 0.0 0.0 34.56954931742767" Properties=species:S:1:pos:R:3:initial_magmoms:R:1 pbc="T T T"
Si       1.93811904       1.14122853       0.57098557       0.00000000
Si      -1.19975850      -1.49253867       1.33002958       0.00000000
Si      -1.82436597       1.33107219      -0.80073492       0.00000000
Si       0.79746066      -2.11427910      -1.06322165       0.00000000
Si      -1.53373608      -2.51662581      -0.82583243       0.00000000
Si       1.88346609       2.86778934      -1.01506624       0.00000000
Si      -0.84804111       2.09735379       2.78139835       0.00000000
Si       1.62781083       1.81146429       2.78565041       0.00000000
Si      -0.69861294       3.12202737      -1.91093662       0.00000000
Si      -2.77615809       2.27424690       1.17802719       0.00000000
