10
Lattice="16.28999089631971 0.0 0.0 0.0 16.28999089631971 0.0 0.0 0.0 34.56954931742767" Properties=species:S:1:pos:R:3:initial_magmoms:R:1 pbc="T T T"
Si       0.32767335      -2.25803835       0.49268549       0.00000000
Si       1.01708244       1.43523045      -1.60312918       0.00000000
Si      -2.14058745      -0.53610390      -0.95145824       0.00000000
Si       0.43774488       1.69578900       1.65719598       0.00000000
Si       0.73278936       3.29368229      -0.12998158       0.00000000
Si      -0.91103454       1.61212356      -3.20650034       0.00000000
Si      -1.53433881       1.90485486       2.85472041       0.00000000
Si       0.66536505      -2.15466201      -3.05449795       0.00000000
Si      -1.65017700      -3.09397599       1.53623706       0.00000000
Si       1.26180711      -2.54444913       2.58030717       0.00000000
