10
Lattice="16.28999089631971 0.0 0.0 0.0 16.28999089631971 0.0 0.0 0.0 34.56954931742767" Properties=species:S:1:pos:R:3:initial_magmoms:R:1 pbc="T T T"
Si       1.32144480      -1.59413940      -1.08323743       0.00000000
Si      -1.35941679      -1.29262779       1.41196088       0.00000000
Si      -0.96588297       1.85016933      -1.08164723       0.00000000
Si       1.36581876       1.43130456       1.45106252       0.00000000
Si      -0.33150150      -2.77708662      -2.37212923       0.00000000
Si       2.78163153      -0.51893424      -2.54366343       0.00000000
Si      -3.17180961      -2.19483315       0.16450417       0.00000000
Si      -0.00333945       2.68107376       2.85026236       0.00000000
Si      -2.70466128      -0.01733256       2.83113847       0.00000000
Si       2.73158865      -0.01576872       2.82029054       0.00000000
