10
Lattice="16.28999089631971 0.0 0.0 0.0 16.28999089631971 0.0 0.0 0.0 34.56954931742767" Properties=species:S:1:pos:R:3:initial_magmoms:R:1 pbc="T T T"
Si      -1.70338014      -0.97850120       1.32055455       0.00000000
Si      -0.91114857       0.04598667      -2.20030213       0.00000000
Si       1.06917786       1.75840776       1.25297104       0.00000000
Si       1.80895563      -1.65670440       0.09983325       0.00000000
Si       2.07218574      -1.84016564      -2.19162517       0.00000000
Si      -0.37227537      -2.32436172       2.71117076       0.00000000
Si       2.37886128       0.39887694       2.68197676       0.00000000
Si      -1.33481889      -3.15526616      -1.22073883       0.00000000
Si       0.68758461       1.60050879      -3.28564830       0.00000000
Si      -3.12820128      -2.20492985      -0.08201724       0.00000000
