10
Lattice="16.28999089631971 0.0 0.0 0.0 16.28999089631971 0.0 0.0 0.0 34.56954931742767" Properties=species:S:1:pos:R:3:initial_magmoms:R:1 pbc="T T T"
Si      -1.37624436      -1.35765122      -1.33927349       0.00000000
Si       1.35757602      -1.35685341       1.35996683       0.00000000
Si      -1.35780408       1.35871306       1.36048537       0.00000000
Si       1.37489229       1.36558744      -1.36846749       0.00000000
Si      -0.00708615      -2.60742042      -2.73847332       0.00000000
Si       2.71127502       2.71514878       0.00304212       0.00000000
Si      -2.71433754       2.71588183       0.00134821       0.00000000
Si       2.71546155      -2.71570005       0.00017285       0.00000000
Si      -0.00043983      -2.71451088       2.71744465       0.00000000
Si      -2.71704168      -2.71496700       0.00719047       0.00000000
