10
Lattice="16.28999089631971 0.0 0.0 0.0 16.28999089631971 0.0 0.0 0.0 34.56954931742767" Properties=species:S:1:pos:R:3:initial_magmoms:R:1 pbc="T T T"
Si       1.33638273       1.34956134       1.37150961       0.00000000
Si      -1.30968342       1.35953082      -1.42900572       0.00000000
Si      -1.37489229      -1.36558744       1.36846749       0.00000000
Si       1.43057151      -1.23710333      -1.48669195       0.00000000
Si      -0.56990565      -2.05558134      -2.58214351       0.00000000
Si      -2.37886128      -0.39887694      -2.68197676       0.00000000
Si       2.71002069       2.71195920      -0.00559681       0.00000000
Si       2.69770545      -0.00672777       2.72922942       0.00000000
Si       2.70166392      -2.72540564      -0.02908338       0.00000000
Si      -2.73683403       2.69843850      -0.01669710       0.00000000
