10
Lattice="16.28999089631971 0.0 0.0 0.0 16.28999089631971 0.0 0.0 0.0 34.56954931742767" Properties=species:S:1:pos:R:3:initial_magmoms:R:1 pbc="T T T"
Si       1.35065277       1.35970349      -1.37683678       0.00000000
Si      -1.36192545      -1.35739318      -1.37728618       0.00000000
Si      -1.35448092       1.40911106       1.36961174       0.00000000
Si       1.41341814      -1.27431262       1.48690629       0.00000000
Si      -0.23286555      -2.32449896       3.00046571       0.00000000
Si       2.52877815       0.32875826       2.86640492       0.00000000
Si       2.70816363       2.71840352      -0.00276557       0.00000000
Si       2.71174743      -2.71707167       0.00884981       0.00000000
Si      -2.71147050      -2.72161658      -0.00262729       0.00000000
Si      -2.73447198       2.71092641      -0.00463232       0.00000000
