10
Lattice="16.28999089631971 0.0 0.0 0.0 16.28999089631971 0.0 0.0 0.0 34.56954931742767" Properties=species:S:1:pos:R:3:initial_magmoms:R:1 pbc="T T T"
Si      -1.10203479      -1.34151752       1.60392428       0.00000000
Si       1.32318783      -1.39468808      -1.41769801       0.00000000
Si      -1.40291109       1.33750560      -1.41565841       0.00000000
Si       1.15364151       1.67016858       1.29293644       0.00000000
Si      -2.65440663      -2.69045984      -0.02502837       0.00000000
Si       2.68017741       2.73603957      -0.04545898       0.00000000
Si       2.77661421      -2.65758662       0.05928681       0.00000000
Si       2.67273288      -0.03046468      -2.79235691       0.00000000
Si      -0.04067613       2.68500300      -2.79297916       0.00000000
Si      -0.04166982      -2.74991834      -2.79567559       0.00000000
