10
Lattice="16.28999089631971 0.0 0.0 0.0 16.28999089631971 0.0 0.0 0.0 34.56954931742767" Properties=species:S:1:pos:R:3:initial_magmoms:R:1 pbc="T T T"
Si      -1.96623558      -0.69520833      -1.11569826       0.00000000
Si       0.03091842       2.39446710       0.11511666       0.00000000
Si       0.14310765      -0.51811974       2.33742138       0.00000000
Si       1.85403006      -0.53693469      -1.49935133       0.00000000
Si      -2.16078705      -0.81111168       2.88005990       0.00000000
Si       1.11153186       1.39655799       3.28580293       0.00000000
Si       2.00127537       3.01291695      -1.00210266       0.00000000
Si       3.46858083      -1.66951323      -0.18211249       0.00000000
Si      -3.76522173       0.74227014      -0.66950884       0.00000000
Si      -0.18231768       3.13075881       2.36251889       0.00000000
