10
Lattice="16.28999089631971 0.0 0.0 0.0 16.28999089631971 0.0 0.0 0.0 34.56954931742767" Properties=species:S:1:pos:R:3:initial_magmoms:R:1 pbc="T T T"
Si      -1.61455077       1.13257854      -1.31723884       0.00000000
Si       1.06075593       1.73837106       1.27731099       0.00000000
Si      -0.41542758      -2.14705458       1.10971772       0.00000000
Si       1.86800688      -1.06557777      -1.18338547       0.00000000
Si       1.70142534      -2.86858755       0.34196217       0.00000000
Si       1.58346945       0.61157547      -2.93734168       0.00000000
Si      -1.71102015      -0.58365441      -2.93709969       0.00000000
Si      -0.17301609       2.96316729      -2.00258054       0.00000000
Si       1.94167026       3.14036991      -0.47996389       0.00000000
Si      -3.46858083       1.66951323       0.18211249       0.00000000
