10
Lattice="16.28999089631971 0.0 0.0 0.0 16.28999089631971 0.0 0.0 0.0 34.56954931742767" Properties=species:S:1:pos:R:3:initial_magmoms:R:1 pbc="T T T"
Si      -1.94491197      -0.73272420       1.41586379       0.00000000
Si       0.57166497       1.93815162       1.56544285       0.00000000
Si       2.09380257      -1.80025677       0.30085896       0.00000000
Si      -1.08802539      -1.89907191      -1.83688860       0.00000000
Si       0.24348663       1.50237783      -2.63133186       0.00000000
Si      -1.54701243       0.09252720      -2.99296411       0.00000000
Si      -0.62959221      -1.97196966       3.04023942       0.00000000
Si       0.79755840      -3.31087734       1.62793081       0.00000000
Si       2.07075222       0.76132944       3.06398526       0.00000000
Si       3.51313398      -0.47268693       1.68287222       0.00000000
