10
Lattice="16.28999089631971 0.0 0.0 0.0 16.28999089631971 0.0 0.0 0.0 34.56954931742767" Properties=species:S:1:pos:R:3:initial_magmoms:R:1 pbc="T T T"
Si      -1.35506736       1.35720135      -1.36276697       0.00000000
Si       1.36130643      -1.35860229      -1.36238670       0.00000000
Si      -1.36505313      -1.36572102       1.37638738       0.00000000
Si       1.37350764       1.35912357       1.37697506       0.00000000
Si      -2.71254564       2.70909216      -0.00580769       0.00000000
Si      -2.71257822      -2.71518462      -0.00383722       0.00000000
Si       2.71630863       2.71241532      -0.00345696       0.00000000
Si      -2.71212210      -0.00180819      -2.71979538       0.00000000
Si       2.71717200      -2.71557558      -0.00428663       0.00000000
Si       0.00250866       2.71308321      -2.72003737       0.00000000
