10
Lattice="16.28999089631971 0.0 0.0 0.0 16.28999089631971 0.0 0.0 0.0 34.56954931742767" Properties=species:S:1:pos:R:3:initial_magmoms:R:1 pbc="T T T"
Si       1.35782363      -1.35539316       1.36034710       0.00000000
Si      -1.35780801       1.35889551       1.36100392       0.00000000
Si       1.34785415       1.36721970      -1.36978459       0.00000000
Si      -1.35367587      -1.36023129      -1.38526138       0.00000000
Si       2.66576402      -0.01571985      -2.75249474       0.00000000
Si      -2.71432518      -2.71208626      -0.00203960       0.00000000
Si       2.71606754      -2.71301968      -0.00006914       0.00000000
Si      -2.71403196       2.71564074       0.00141735       0.00000000
Si       0.00040399      -2.71336177       2.71779035       0.00000000
Si       2.71504127       2.71669959      -0.00311126       0.00000000
