10
Lattice="16.28999089631971 0.0 0.0 0.0 16.28999089631971 0.0 0.0 0.0 34.56954931742767" Properties=species:S:1:pos:R:3:initial_magmoms:R:1 pbc="T T T"
Si       1.39437513      -0.12116502      -1.89150852       0.00000000
Si      -0.64198890      -2.16863883       0.79669028       0.00000000
Si      -2.14042455       1.11409169      -0.01403524       0.00000000
Si       1.92528252       0.71503326       1.27530596       0.00000000
Si       0.61454025      -2.09468223       2.80829348       0.00000000
Si       0.78698619       1.69200062       3.05124841       0.00000000
Si       2.66338242      -1.47799170       1.92583610       0.00000000
Si      -2.70241326       1.57244505       2.18534985       0.00000000
Si       1.56064716       1.92475051      -3.03973674       0.00000000
Si      -3.90728682      -0.58580469      -0.06485251       0.00000000
