10
Lattice="16.28999089631971 0.0 0.0 0.0 16.28999089631971 0.0 0.0 0.0 34.56954931742767" Properties=species:S:1:pos:R:3:initial_magmoms:R:1 pbc="T T T"
Si       1.25644770      -1.75746294      -0.92746696       0.00000000
Si       1.25652915       0.07395660       2.01160320       0.00000000
Si       0.64198890       2.16863883      -0.79669028       0.00000000
Si      -2.36221290      -0.31926771       0.28799908       0.00000000
Si      -2.23612830      -0.28707867       2.66472606       0.00000000
Si       3.30537132       0.69064713       1.12914582       0.00000000
Si       3.44813688      -0.86749137      -0.65523160       0.00000000
Si      -1.49843565       3.28273052      -0.81072552       0.00000000
Si      -3.26529792       1.58283414      -0.86154279       0.00000000
Si       0.60020505       1.94090463       3.28601035       0.00000000
