10
Lattice="16.28999089631971 0.0 0.0 0.0 16.28999089631971 0.0 0.0 0.0 34.56954931742767" Properties=species:S:1:pos:R:3:initial_magmoms:R:1 pbc="T T T"
Si       1.79046648      -0.77370984      -1.33915595       0.00000000
Si      -0.34898067       2.24710776      -0.67303493       0.00000000
Si      -2.11458861      -1.03216698       0.31199036       0.00000000
Si       1.29741705      -0.32884623       2.01692691       0.00000000
Si       0.24983973      -2.52763785      -1.94025161       0.00000000
Si       2.42176914       1.69756461       1.71897180       0.00000000
Si       1.96089246       2.78747964      -0.49697212       0.00000000
Si      -2.07581841      -2.21544000      -1.69964741       0.00000000
Si      -1.41522633       3.20464766       1.18570163       0.00000000
Si       2.73906576       1.31531976      -2.17622348       0.00000000
