10
Lattice="16.28999089631971 0.0 0.0 0.0 16.28999089631971 0.0 0.0 0.0 34.56954931742767" Properties=species:S:1:pos:R:3:initial_magmoms:R:1 pbc="T T T"
Si      -1.35049689      -1.35682668       1.39777211       0.00000000
Si       1.36131311       1.36260963       1.39573251       0.00000000
Si       1.41947492      -1.32851466      -1.49284880       0.00000000
Si      -1.48998816       1.39079133      -1.48410615       0.00000000
Si      -2.69588799      -2.70879894       0.02246331       0.00000000
Si      -2.70080757       2.70705591       0.05645211       0.00000000
Si       2.71138921      -2.70524772       0.02657017       0.00000000
Si       2.71684636       2.71534752       0.01282877       0.00000000
Si      -2.70949014       0.00149868       2.75711669       0.00000000
Si       0.00572706      -2.71357191       2.75735868       0.00000000
