10
Lattice="16.28999089631971 0.0 0.0 0.0 16.28999089631971 0.0 0.0 0.0 34.56954931742767" Properties=species:S:1:pos:R:3:initial_magmoms:R:1 pbc="T T T"
Si      -1.35410625       1.35386190      -1.36131504       0.00000000
Si       1.35927018      -1.36040396      -1.36124590       0.00000000
Si      -1.35065277      -1.35970349       1.37683678       0.00000000
Si       1.35751086       1.35870003       1.37407121       0.00000000
Si      -2.71410948       2.71326240       0.00134821       0.00000000
Si      -2.71257822      -2.71709668      -0.00044940       0.00000000
Si       2.71598228       2.71399545      -0.00100252       0.00000000
Si      -2.71195920      -0.00281817      -2.71803233       0.00000000
Si       0.00314397       2.71269225      -2.71817061       0.00000000
Si       2.71646412      -2.71707144       0.00141735       0.00000000
