10
Lattice="16.28999089631971 0.0 0.0 0.0 16.28999089631971 0.0 0.0 0.0 34.56954931742767" Properties=species:S:1:pos:R:3:initial_magmoms:R:1 pbc="T T T"
Si      -1.11536001      -1.60307088      -1.37949864       0.00000000
Si       0.60191550      -1.01980124       2.09823454       0.00000000
Si       1.63238541       1.15054641      -1.41780172       0.00000000
Si      -1.76948496       1.27496943       1.14103775       0.00000000
Si      -1.48571316      -0.82997713       3.27837047       0.00000000
Si      -3.31889202      -0.64600601       1.54235587       0.00000000
Si       2.39897033       2.86267428       0.15300491       0.00000000
Si       0.17938548       2.38964526      -2.86917049       0.00000000
Si      -2.76164370      -2.65325723       0.13406079       0.00000000
Si      -2.52877815      -0.32875826      -2.86640492       0.00000000
