10
Lattice="16.28999089631971 0.0 0.0 0.0 16.28999089631971 0.0 0.0 0.0 34.56954931742767" Properties=species:S:1:pos:R:3:initial_magmoms:R:1 pbc="T T T"
Si      -1.10465748       1.48801005      -1.36501399       0.00000000
Si       1.76948496      -1.27496943      -1.14103775       0.00000000
Si      -1.54940706      -1.92097544       0.40131812       0.00000000
Si       0.63203571       1.72657710       1.72408810       0.00000000
Si       0.28377180      -2.10494656       2.13733272       0.00000000
Si       0.46545417      -0.07643268       3.24943574       0.00000000
Si      -2.11377411      -0.19461663      -2.63783093       0.00000000
Si       0.34749828       3.40373034      -0.02986811       0.00000000
Si       2.37140046      -2.29477067       0.95719679       0.00000000
Si       0.60945777       2.56994298      -2.56506199       0.00000000
