10
Lattice="16.28999089631971 0.0 0.0 0.0 16.28999089631971 0.0 0.0 0.0 34.56954931742767" Properties=species:S:1:pos:R:3:initial_magmoms:R:1 pbc="T T T"
Si       0.19059300       1.53543513      -1.72291273       0.00000000
Si      -0.25534575       1.71745959       1.56458411       0.00000000
Si       2.08527054      -1.04478847       0.17385036       0.00000000
Si      -1.71183465      -1.62624929       0.43495431       0.00000000
Si       1.73642345      -1.96952846       2.35010842       0.00000000
Si      -2.85013098      -0.64928193       2.21089676       0.00000000
Si      -1.38728898       0.69425211       3.36310048       0.00000000
Si      -1.89478764       1.61198184      -2.76798536       0.00000000
Si       1.56906813       0.51054978      -3.39953681       0.00000000
Si       2.12215110      -2.84891153      -1.41071496       0.00000000
