10
Lattice="16.28999089631971 0.0 0.0 0.0 16.28999089631971 0.0 0.0 0.0 34.56954931742767" Properties=species:S:1:pos:R:3:initial_magmoms:R:1 pbc="T T T"
Si       1.46284200       1.34353404       1.15220372       0.00000000
Si       1.13829633      -0.97696736      -1.77594245       0.00000000
Si      -0.82877004      -1.91973482       1.03145222       0.00000000
Si      -1.76179608       1.43544222      -0.54699428       0.00000000
Si       2.59478523       2.36674152      -0.64631266       0.00000000
Si      -0.78698619      -1.69200062      -3.05124841       0.00000000
Si      -3.48939945      -0.11955557      -0.86589856       0.00000000
Si       3.14449128      -0.19581069       1.75215859       0.00000000
Si      -0.00985545       2.93931873       2.12665072       0.00000000
Si       2.85013098       0.64928193      -2.21089676       0.00000000
