10
Lattice="16.28999089631971 0.0 0.0 0.0 16.28999089631971 0.0 0.0 0.0 34.56954931742767" Properties=species:S:1:pos:R:3:initial_magmoms:R:1 pbc="T T T"
Si      -1.68164928       1.53934473      -0.59995486       0.00000000
Si       1.50704233       1.67261322       0.70317960       0.00000000
Si      -0.92967030      -1.68181448       1.42647868       0.00000000
Si       1.44206315      -1.12443584      -1.61294693       0.00000000
Si      -0.54970605       2.56255221      -2.39847124       0.00000000
Si      -3.14449128       0.19581069      -1.75215859       0.00000000
Si      -0.15164361      -0.91680350       3.52986408       0.00000000
Si       0.58049415      -3.30177353      -1.45223301       0.00000000
Si       3.42395342      -1.32648071      -0.41466198       0.00000000
Si       1.37215461       3.26137692      -1.12409866       0.00000000
