10
Lattice="16.28999089631971 0.0 0.0 0.0 16.28999089631971 0.0 0.0 0.0 34.56954931742767" Properties=species:S:1:pos:R:3:initial_magmoms:R:1 pbc="T T T"
Si      -1.44238176       1.23401637       1.38111304       0.00000000
Si      -1.41933141      -1.32756984      -1.38201327       0.00000000
Si       1.30412853      -1.48576203       1.36846749       0.00000000
Si       0.64511658       1.85059287      -1.62507190       0.00000000
Si       2.51002836       2.61382824      -0.13810197       0.00000000
Si      -0.06814107       2.58432705       2.74785550       0.00000000
Si       0.18487521      -2.50880661      -2.81547500       0.00000000
Si      -2.94146901       2.41083855      -0.11742937       0.00000000
Si       2.64951963      -0.13378977       2.74377629       0.00000000
Si       2.70190827      -2.77042401      -0.12608213       0.00000000
