10
Lattice="16.28999089631971 0.0 0.0 0.0 16.28999089631971 0.0 0.0 0.0 34.56954931742767" Properties=species:S:1:pos:R:3:initial_magmoms:R:1 pbc="T T T"
Si      -2.09803797      -0.11171682       1.07227888       0.00000000
Si       0.84621663       1.66218273      -1.50228974       0.00000000
Si      -1.83607848      -0.94550418      -1.46291501       0.00000000
Si       1.72291904      -1.92774231       0.11411415       0.00000000
Si       0.45939429      -1.05383268       3.32320720       0.00000000
Si       2.22058017       0.30807648      -2.90978973       0.00000000
Si       2.48274654       2.74351293      -0.21633636       0.00000000
Si      -0.49666581      -2.40077133      -2.90806125       0.00000000
Si      -1.81350054      -1.78887006       2.82623508       0.00000000
Si       3.48743555      -1.12228326      -1.42772318       0.00000000
