10
Lattice="16.28999089631971 0.0 0.0 0.0 16.28999089631971 0.0 0.0 0.0 34.56954931742767" Properties=species:S:1:pos:R:3:initial_magmoms:R:1 pbc="T T T"
Si       1.71282412       1.46339586       0.55674290       0.00000000
Si      -2.05105761       0.56127195       0.94724075       0.00000000
Si      -0.25557381       0.34231806      -2.30482228       0.00000000
Si       0.59304138      -2.11616874       0.82877084       0.00000000
Si       1.11995935      -3.11577201      -1.24982818       0.00000000
Si       0.98507163      -1.52700831      -3.07710644       0.00000000
Si       2.26757519      -1.44098082       2.45433566       0.00000000
Si       2.20130747       0.87570153       2.77887477       0.00000000
Si      -2.56603338       2.58967017      -0.26490660       0.00000000
Si       0.86950386       3.62747349       0.54409044       0.00000000
