10
Lattice="16.28999089631971 0.0 0.0 0.0 16.28999089631971 0.0 0.0 0.0 34.56954931742767" Properties=species:S:1:pos:R:3:initial_magmoms:R:1 pbc="T T T"
Si       1.34342001      -1.31040018       1.32867446       0.00000000
Si      -1.37788965       1.43169552       1.29950465       0.00000000
Si      -1.19754306      -1.57780053      -1.34254619       0.00000000
Si       1.82239488       0.85963959      -1.41849453       0.00000000
Si       0.53636454      -0.34438689      -3.45211855       0.00000000
Si       2.55423942      -2.62666476      -0.21188380       0.00000000
Si      -0.02393001      -2.65616595       2.67407367       0.00000000
Si       2.69395875       0.05554890       2.66802400       0.00000000
Si      -2.78803350      -0.14667516      -2.60402332       0.00000000
Si      -2.73494439       0.05608647       2.66629552       0.00000000
