10
Lattice="16.28999089631971 0.0 0.0 0.0 16.28999089631971 0.0 0.0 0.0 34.56954931742767" Properties=species:S:1:pos:R:3:initial_magmoms:R:1 pbc="T T T"
Si       1.43736444       1.12824540       1.44725499       0.00000000
Si       1.42946379      -1.21606479      -1.45710732       0.00000000
Si      -1.74467529      -0.93045222       1.33431621       0.00000000
Si      -1.26107406       1.50716709      -1.44794638       0.00000000
Si       2.78024688      -2.57465079      -0.04711832       0.00000000
Si      -2.74393647      -2.64738564      -0.00255815       0.00000000
Si       0.08259030      -2.56753206      -2.82920807       0.00000000
Si      -3.41176131       1.07665497       1.37960235       0.00000000
Si       2.72648988       2.72163546      -0.00034570       0.00000000
Si      -2.63458170       0.14804352      -2.82492144       0.00000000
