10
Lattice="16.28999089631971 0.0 0.0 0.0 16.28999089631971 0.0 0.0 0.0 34.56954931742767" Properties=species:S:1:pos:R:3:initial_magmoms:R:1 pbc="T T T"
Si      -2.09924343       0.60186663       0.85774014       0.00000000
Si       1.25970570      -0.61336737       1.89824958       0.00000000
Si      -0.54332037      -1.90804770      -1.37237731       0.00000000
Si       0.93182058       1.95416469      -1.07290113       0.00000000
Si      -3.29219271       0.65042712      -1.19558853       0.00000000
Si       3.45879773      -0.31589568       1.01001909       0.00000000
Si      -2.19952467      -0.90815121      -2.79598671       0.00000000
Si      -2.61995328      -0.95275323       2.59707341       0.00000000
Si       2.47119204       1.15624791      -2.70026358       0.00000000
Si       0.33071958       0.58863915       3.78322445       0.00000000
