10
Lattice="16.28999089631971 0.0 0.0 0.0 16.28999089631971 0.0 0.0 0.0 34.56954931742767" Properties=species:S:1:pos:R:3:initial_magmoms:R:1 pbc="T T T"
Si      -0.23061753       2.09517093      -1.03670679       0.00000000
Si       0.35678358      -2.02989690      -1.18355832       0.00000000
Si      -2.36491704      -0.14097366       0.37947015       0.00000000
Si       1.70799021       0.09127287       1.73947155       0.00000000
Si      -0.16392627      -3.58451676       0.55577495       0.00000000
Si       1.81822464       2.71186146      -1.91916417       0.00000000
Si      -2.68503183      -0.14136462       2.67962554       0.00000000
Si      -1.14440508       1.61256339       3.28072120       0.00000000
Si       2.78674659      -2.04312438       1.74192599       0.00000000
Si      -0.83616570      -1.98133641      -3.23688699       0.00000000
