10
Lattice="16.28999089631971 0.0 0.0 0.0 16.28999089631971 0.0 0.0 0.0 34.56954931742767" Properties=species:S:1:pos:R:3:initial_magmoms:R:1 pbc="T T T"
Si       1.89658184      -1.14769566       0.84187271       0.00000000
Si      -1.28363571      -0.81259407      -1.83339707       0.00000000
Si      -1.81833867      -0.34622766       1.52078446       0.00000000
Si      -0.16159680       2.38729950       0.78911954       0.00000000
Si       1.32124932      -3.25506780      -0.05890654       0.00000000
Si       1.30712589      -0.81318051       3.34706020       0.00000000
Si      -0.53230833       0.85779882       3.55440848       0.00000000
Si      -2.02572666      -2.98172160      -1.35931001       0.00000000
Si       2.95081200       0.99510723      -2.31232388       0.00000000
Si      -3.68254998       0.92668923       0.90845369       0.00000000
