10
Lattice="16.28999089631971 0.0 0.0 0.0 16.28999089631971 0.0 0.0 0.0 34.56954931742767" Properties=species:S:1:pos:R:3:initial_magmoms:R:1 pbc="T T T"
Si      -2.31356186      -0.38845134      -0.31842030       0.00000000
Si       0.24615819       2.30378067       0.69239389       0.00000000
Si       0.73867005      -0.38591010      -2.27077126       0.00000000
Si       1.33975476      -1.60774155       1.22825677       0.00000000
Si       2.51708193       2.62387917      -0.00995604       0.00000000
Si      -2.56170743      -0.09857079      -2.64937717       0.00000000
Si       3.54012651      -1.10890917       0.28118887       0.00000000
Si       3.13414713      -0.73943568      -2.05609423       0.00000000
Si       0.89762787      -1.29521790       3.57041419       0.00000000
Si      -0.98950999      -1.64836881      -3.42155763       0.00000000
