10
Lattice="16.28999089631971 0.0 0.0 0.0 16.28999089631971 0.0 0.0 0.0 34.56954931742767" Properties=species:S:1:pos:R:3:initial_magmoms:R:1 pbc="T T T"
Si       2.19134709       0.84893706       0.61309130       0.00000000
Si      -1.70116470       1.75565475       0.11442527       0.00000000
Si       1.27167885      -0.46669221      -2.13581166       0.00000000
Si      -1.17369450      -1.44502074       1.75692919       0.00000000
Si       1.58926869       1.55238813       2.71785949       0.00000000
Si       2.90061110      -1.83484044      -0.89984587       0.00000000
Si      -0.55969182       2.79191052       2.25981270       0.00000000
Si       0.02850750      -3.41469351       1.40176144       0.00000000
Si      -3.68685054       0.38951019       0.27717880       0.00000000
Si      -1.91036088      -2.52538983      -2.24875044       0.00000000
