10
Lattice="16.28999089631971 0.0 0.0 0.0 16.28999089631971 0.0 0.0 0.0 34.56954931742767" Properties=species:S:1:pos:R:3:initial_magmoms:R:1 pbc="T T T"
Si       1.02270249      -2.04020847      -0.59452744       0.00000000
Si       0.77802669       0.76501098       2.10338540       0.00000000
Si      -2.35245519      -0.30263562       0.05876827       0.00000000
Si       0.92967030       1.68181448      -1.42647868       0.00000000
Si       2.83925808      -1.87838361       1.03114109       0.00000000
Si       1.51016445      -1.61995905      -2.87871169       0.00000000
Si      -3.04359102      -0.04210965      -2.14718505       0.00000000
Si      -3.13062849       1.16952426       1.73801963       0.00000000
Si       3.01472907       0.12331530       2.32383554       0.00000000
Si      -0.75197898       3.22115921      -2.02643354       0.00000000
