10
Lattice="16.28999089631971 0.0 0.0 0.0 16.28999089631971 0.0 0.0 0.0 34.56954931742767" Properties=species:S:1:pos:R:3:initial_magmoms:R:1 pbc="T T T"
Si      -1.35739856      -1.35529542      -1.35685557       0.00000000
Si       1.35803866       1.35982404      -1.35675186       0.00000000
Si      -1.35475852       1.36058967       1.36062365       0.00000000
Si       1.36189939      -1.35814617       1.35858405       0.00000000
Si       2.71297570      -2.71337643      -0.00100252       0.00000000
Si      -2.71363774      -2.71324611       0.00003457       0.00000000
Si       0.00035349      -2.71314837      -2.71419511       0.00000000
Si       2.71533775       0.00272043      -2.71419511       0.00000000
Si      -2.71492465       0.00267156      -2.71460995       0.00000000
Si       0.00064183       2.71743264      -2.71436796       0.00000000
