10
Lattice="16.28999089631971 0.0 0.0 0.0 16.28999089631971 0.0 0.0 0.0 34.56954931742767" Properties=species:S:1:pos:R:3:initial_magmoms:R:1 pbc="T T T"
Si       1.25990770      -1.41553584       1.56095430       0.00000000
Si      -1.83933715      -0.92476701      -1.34993962       0.00000000
Si      -1.43133781       1.31018841       1.55333171       0.00000000
Si       1.76975212       1.07186571      -1.46567854       0.00000000
Si       2.63955667       2.66655897       0.14692758       0.00000000
Si       3.50753674      -0.86079618      -1.08037853       0.00000000
Si      -2.69343814       2.66157423       0.00167317       0.00000000
Si       2.69406301      -2.69909010       0.14327012       0.00000000
Si      -3.67877137       0.74621232      -1.14259135       0.00000000
Si       2.62093720      -0.05708016       2.94285552       0.00000000
