10
Lattice="16.28999089631971 0.0 0.0 0.0 16.28999089631971 0.0 0.0 0.0 34.56954931742767" Properties=species:S:1:pos:R:3:initial_magmoms:R:1 pbc="T T T"
Si       0.98991398      -1.76362056       1.15292968       0.00000000
Si      -0.03688056       1.80412306       1.58456532       0.00000000
Si       2.21946689       0.38460690      -1.10211242       0.00000000
Si      -2.21593263      -0.85305843      -0.86309842       0.00000000
Si       1.72333865       2.69071608      -1.34562046       0.00000000
Si       1.44160310      -3.22654401      -0.70214251       0.00000000
Si      -1.61385423      -1.55650950      -2.96786661       0.00000000
Si      -2.12215110       2.84891153       1.41071496       0.00000000
Si      -0.67295130       0.40804821      -3.76742616       0.00000000
Si       1.92074087       3.17266062       1.03525487       0.00000000
