10
Lattice="16.28999089631971 0.0 0.0 0.0 16.28999089631971 0.0 0.0 0.0 34.56954931742767" Properties=species:S:1:pos:R:3:initial_magmoms:R:1 pbc="T T T"
Si      -1.77243182      -0.27984591       1.49184973       0.00000000
Si       1.67433507       1.14523587       1.19420575       0.00000000
Si       0.37970361      -2.28002985      -0.59604850       0.00000000
Si      -0.25806618       1.95387147      -1.38043201       0.00000000
Si       0.26347446       2.91968816       1.88010056       0.00000000
Si       3.16311075       1.39906665      -0.60064626       0.00000000
Si       1.71401751       1.74480561      -2.57795644       0.00000000
Si      -3.58898741      -0.44167077      -0.13381880       0.00000000
Si      -1.59696083       1.72185300       2.78454418       0.00000000
Si      -0.90782541      -1.83951567       3.04564814       0.00000000
