10
Lattice="10.86 0.0 0.0 0.0 10.86 0.0 0.0 0.0 10.86" Properties=species:S:1:pos:R:3:initial_magmoms:R:1 pbc="T T T"
Si       1.54694184      -1.16430060      -1.00912206       0.00000000
Si      -1.16805816       1.55069940      -1.00912206       0.00000000
Si      -1.16805816      -1.16430060       1.70587794       0.00000000
Si       0.18944184      -2.52180060      -2.36662206       0.00000000
Si      -2.52555816       0.19319940      -2.36662206       0.00000000
Si      -2.52555816      -2.52180060       0.34837794       0.00000000
Si       2.76582480       0.13272006      -2.35500186       0.00000000
Si       0.09215796       3.02524848      -2.27810220       0.00000000
Si       2.90444184      -2.52180060       0.34837794       0.00000000
Si      -2.52555816       2.90819940       0.34837794       0.00000000
