10
Lattice="10.86 0.0 0.0 0.0 10.86 0.0 0.0 0.0 10.86" Properties=species:S:1:pos:R:3:initial_magmoms:R:1 pbc="T T T"
Si       1.30560006       1.33619268       1.22260794       0.00000000
Si      -1.40939994      -1.37880732       1.22260794       0.00000000
Si       1.44103512      -1.36989126      -1.25015976       0.00000000
Si      -1.40939994       1.33619268      -1.49239206       0.00000000
Si      -0.05189994       2.69369268       2.58010794       0.00000000
Si      -2.76689994      -0.02130732       2.58010794       0.00000000
Si       2.66310006       2.69369268      -0.13489206       0.00000000
Si      -0.17787594      -2.80889556       2.55797526       0.00000000
Si      -0.14918382      -2.61925824      -2.76137220       0.00000000
Si       2.79521196      -0.04140918       2.58885024       0.00000000
