10
Lattice="10.86 0.0 0.0 0.0 10.86 0.0 0.0 0.0 10.86" Properties=species:S:1:pos:R:3:initial_magmoms:R:1 pbc="T T T"
Si      -1.19183070       1.34971338      -1.34078646       0.00000000
Si       1.52316930      -1.36528662      -1.34078646       0.00000000
Si       1.52316930       1.34971338       1.37421354       0.00000000
Si       0.10626510      -2.48495262       2.48687484       0.00000000
Si      -2.41721880      -0.02788848       2.74045584       0.00000000
Si      -2.54933070       2.70721338       0.01671354       0.00000000
Si      -2.50944192      -0.03487146      -2.77268832       0.00000000
Si       0.16566930       2.70721338      -2.69828646       0.00000000
Si       0.16566930       2.70721338       2.73171354       0.00000000
Si       0.40200462      -2.60825706      -2.81942976       0.00000000
