10
Lattice="16.28999089631971 0.0 0.0 0.0 16.28999089631971 0.0 0.0 0.0 34.51530692428229" Properties=species:S:1:pos:R:3:initial_magmoms:R:1 pbc="T T T"
Si      -1.80273841      -0.92152530       1.19707232       0.00000000
Si       0.02550199       1.88692839      -1.41761348       0.00000000
Si       0.84909996       1.82577410       1.34294789       0.00000000
Si      -0.19189620      -1.36606311      -2.33044031       0.00000000
Si       1.04585872       0.51805458      -3.08539404       0.00000000
Si      -0.46538541      -2.21623821       2.69550688       0.00000000
Si       2.25559648       0.49489020       2.70003184       0.00000000
Si      -2.20212034       2.39234030      -2.07599333       0.00000000
Si       3.55464253      -1.12282083       1.14529933       0.00000000
Si       0.96591229      -3.62095749       1.15140854       0.00000000
