10
Lattice="16.28999089631971 0.0 0.0 0.0 16.28999089631971 0.0 0.0 0.0 34.51530692428229" Properties=species:S:1:pos:R:3:initial_magmoms:R:1 pbc="T T T"
Si      -1.22311836       1.50151446      -1.34323295       0.00000000
Si       1.49755599      -1.25656336      -1.34074785       0.00000000
Si       1.73110572       0.82481157       1.43897847       0.00000000
Si      -1.53753165      -1.16671424       1.49658454       0.00000000
Si      -2.98517508       0.88855434       1.04515859       0.00000000
Si      -2.57223987       0.12442302      -2.72156799       0.00000000
Si       0.14359635      -2.58557228      -2.72191314       0.00000000
Si      -2.74225860      -2.71867787       0.13312561       0.00000000
Si       0.84778047      -0.32804802       3.76334408       0.00000000
Si       2.75094117       2.74133007       0.13785421       0.00000000
