10
Lattice="16.28999089631971 0.0 0.0 0.0 16.28999089631971 0.0 0.0 0.0 34.51530692428229" Properties=species:S:1:pos:R:3:initial_magmoms:R:1 pbc="T T T"
Si      -1.20472695      -1.55196363      -1.36345893       0.00000000
Si       1.53753165       1.16671424      -1.49658454       0.00000000
Si       0.22628439      -0.52513258       2.42221656       0.00000000
Si      -1.44764343       2.05526857      -0.45142595       0.00000000
Si       2.38531212       0.83866621       2.26675953       0.00000000
Si      -2.38582037      -0.07411624      -2.85162174       0.00000000
Si      -1.95597288       0.18870825       3.21831256       0.00000000
Si      -2.99511850      -2.36208162       0.08383773       0.00000000
Si       3.26863737       1.99152580      -0.05760608       0.00000000
Si       0.31441329       2.66822869      -2.83981749       0.00000000
