10
Lattice="16.28999089631971 0.0 0.0 0.0 16.28999089631971 0.0 0.0 0.0 34.51530692428229" Properties=species:S:1:pos:R:3:initial_magmoms:R:1 pbc="T T T"
Si       0.86701896       2.03462100      -0.67273822       0.00000000
Si      -1.57944582       0.61734213       1.58660052       0.00000000
Si      -1.51154910      -0.09156609      -1.79431375       0.00000000
Si       1.39952277      -1.40827050       1.41999504       0.00000000
Si       1.57380948       2.49844617       1.56250882       0.00000000
Si       0.04468347       1.37977929       3.08142478       0.00000000
Si      -0.84994704      -2.20983787      -2.49908219       0.00000000
Si      -2.77550649      -1.35426915       2.11133702       0.00000000
Si       1.37815029      -3.07419752      -1.84622480       0.00000000
Si       1.11044043      -0.59569272       3.63418773       0.00000000
