10
Lattice="16.28999089631971 0.0 0.0 0.0 16.28999089631971 0.0 0.0 0.0 34.51530692428229" Properties=species:S:1:pos:R:3:initial_magmoms:R:1 pbc="T T T"
Si       1.84968063       1.39885488      -0.15455963       0.00000000
Si      -1.53516960       0.63750915       1.71851809       0.00000000
Si      -0.68903442      -0.46002960      -2.26468861       0.00000000
Si       1.52404353      -1.66291578       0.88417911       0.00000000
Si      -0.19976427      -2.73802320      -2.23327967       0.00000000
Si      -2.39837670      -1.45707534       2.30476091       0.00000000
Si       1.29468033       3.24413721      -1.41181490       0.00000000
Si       3.09567015      -1.98894384      -0.89819233       0.00000000
Si       2.43473598       2.22435063       1.91691219       0.00000000
Si       3.68165403       0.31954464      -1.19757827       0.00000000
