10
Lattice="16.28999089631971 0.0 0.0 0.0 16.28999089631971 0.0 0.0 0.0 34.51530692428229" Properties=species:S:1:pos:R:3:initial_magmoms:R:1 pbc="T T T"
Si       1.24317135      -1.32695082       1.48836645       0.00000000
Si      -1.67221737      -1.04304870      -1.38557777       0.00000000
Si      -1.44705699       1.39429368       1.46222109       0.00000000
Si       1.92621105       0.75323331      -1.50444856       0.00000000
Si       2.58005907       2.66095521      -0.03451878       0.00000000
Si       2.49150663      -2.76301206       0.10305586       0.00000000
Si      -2.87249715       2.48119506      -0.09500344       0.00000000
Si      -2.76824115      -2.66194890       0.00326170       0.00000000
Si       2.60172477       0.04603554       2.84577484       0.00000000
Si      -0.38439513      -2.27230839      -3.11179278       0.00000000
