10
Lattice="16.28999089631971 0.0 0.0 0.0 16.28999089631971 0.0 0.0 0.0 34.51530692428229" Properties=species:S:1:pos:R:3:initial_magmoms:R:1 pbc="T T T"
Si       1.35389448      -1.35913986      -1.36142253       0.00000000
Si      -1.36111095       1.35757602      -1.36111189       0.00000000
Si      -1.34485353      -1.37420811       1.37132843       0.00000000
Si       1.35488817       1.35505107       1.38496198       0.00000000
Si       2.71067229       2.71516833       0.00362411       0.00000000
Si       2.71614573      -2.71463076      -0.00034515       0.00000000
Si       2.71270854       0.00030951      -2.71880676       0.00000000
Si      -2.71780731       2.71547784       0.00034515       0.00000000
Si      -0.00236205      -2.71492398      -2.71859967       0.00000000
Si      -0.00221544       2.71466334      -2.71894482       0.00000000
