10
Lattice="16.28999089631971 0.0 0.0 0.0 16.28999089631971 0.0 0.0 0.0 34.51530692428229" Properties=species:S:1:pos:R:3:initial_magmoms:R:1 pbc="T T T"
Si       2.28760470      -0.07297920      -0.60591655       0.00000000
Si      -1.67132794       0.16428465      -1.67368268       0.00000000
Si      -0.41239764      -2.28958394       0.61527021       0.00000000
Si      -0.17203869       1.78067619       1.63153947       0.00000000
Si      -3.40650683      -0.85921605      -0.39595982       0.00000000
Si      -2.46949069       2.05232823       1.93758687       0.00000000
Si      -2.07778461       2.51864577      -1.89433916       0.00000000
Si       0.83843001       3.67521948       0.49936774       0.00000000
Si       0.78231096       0.93874383       3.62990783       0.00000000
Si       3.56809644       0.96273900       1.02224042       0.00000000
