10
Lattice="16.28999089631971 0.0 0.0 0.0 16.28999089631971 0.0 0.0 0.0 34.51530692428229" Properties=species:S:1:pos:R:3:initial_magmoms:R:1 pbc="T T T"
Si      -0.71755821      -2.15811549       0.27726162       0.00000000
Si      -1.82952990       1.36576989      -0.49305143       0.00000000
Si       1.07823510      -0.10810044      -2.09918762       0.00000000
Si       1.19765709       1.32212898       1.91049234       0.00000000
Si       1.45710792       2.23834374      -2.13836252       0.00000000
Si       2.27546865       2.77268832       0.02702550       0.00000000
Si       1.25995005      -3.32076537       0.90685568       0.00000000
Si      -2.12944509      -2.75193486      -1.55885019       0.00000000
Si      -3.80976185       0.21822084      -0.01259809       0.00000000
Si      -2.00797056       1.76133996      -2.79836459       0.00000000
