10
Lattice="16.28999089631971 0.0 0.0 0.0 16.28999089631971 0.0 0.0 0.0 34.51530692428229" Properties=species:S:1:pos:R:3:initial_magmoms:R:1 pbc="T T T"
Si      -0.58800384      -2.10797487       0.89543111       0.00000000
Si      -1.62435735       1.35498495       1.08157226       0.00000000
Si       1.89581391       1.38864498       0.42491818       0.00000000
Si       0.14949333      -0.64645236      -2.31062851       0.00000000
Si       2.41017066      -1.46137590      -2.31276846       0.00000000
Si       1.51140249      -3.07949418       1.28662782       0.00000000
Si       1.07564499       3.57158969      -0.13961449       0.00000000
Si      -3.74911744       0.63729512       0.16125560       0.00000000
Si      -1.54276074      -3.41049069      -0.80669220       0.00000000
Si      -1.21195971       3.64456889       0.46630206       0.00000000
