10
Lattice="16.28999089631971 0.0 0.0 0.0 16.28999089631971 0.0 0.0 0.0 34.51530692428229" Properties=species:S:1:pos:R:3:initial_magmoms:R:1 pbc="T T T"
Si       0.94607433       1.89310977       0.87099426       0.00000000
Si       1.36493910      -0.86755653      -1.64103118       0.00000000
Si      -1.99236474       0.77872716      -1.01123003       0.00000000
Si       0.64019700      -1.68386472       1.54028095       0.00000000
Si      -3.05347905      -1.12746348      -0.21692883       0.00000000
Si       0.26898048      -2.87469630      -2.09552900       0.00000000
Si       1.00947501       3.39942309      -0.97302156       0.00000000
Si      -2.00342565      -2.37285027      -1.99108562       0.00000000
Si       3.51582183      -1.04363514      -0.70804740       0.00000000
Si       2.96280891       1.25830476       1.90531504       0.00000000
