10
Lattice="16.28999089631971 0.0 0.0 0.0 16.28999089631971 0.0 0.0 0.0 34.51530692428229" Properties=species:S:1:pos:R:3:initial_magmoms:R:1 pbc="T T T"
Si      -1.35580041      -1.35690050      -1.35700457       0.00000000
Si      -1.35195597       1.35724533       1.36145704       0.00000000
Si       1.35726651      -1.35461453       1.36162962       0.00000000
Si       1.35897696       1.35815757      -1.35672844       0.00000000
Si      -2.71298547       0.00001792      -2.71438880       0.00000000
Si      -2.71375110       2.71504941      -0.00003452       0.00000000
Si       0.00179190      -2.71487089      -2.71487201       0.00000000
Si       0.00213399       2.71542408      -2.71452686       0.00000000
Si      -2.71608057      -2.71526185       0.00072482       0.00000000
Si       2.71663443       0.00033720      -2.71501008       0.00000000
