10
Lattice="16.28999089631971 0.0 0.0 0.0 16.28999089631971 0.0 0.0 0.0 34.51530692428229" Properties=species:S:1:pos:R:3:initial_magmoms:R:1 pbc="T T T"
Si       1.41749064      -1.55670956      -0.87851860       0.00000000
Si      -0.29462094      -0.07586711       2.29526919       0.00000000
Si       0.45761868       1.98472734      -1.10697554       0.00000000
Si      -2.22176052      -0.78407486       0.01456547       0.00000000
Si      -1.78639398       2.33949096      -1.88571033       0.00000000
Si      -2.75509512      -0.04290284       2.21305369       0.00000000
Si       0.03122793      -3.45771998      -0.89971101       0.00000000
Si      -3.25558908       0.49789017      -1.61838913       0.00000000
Si       1.14119595      -1.45960487      -3.22138443       0.00000000
Si       3.58862184      -1.19562542       0.13502396       0.00000000
