10
Lattice="16.28999089631971 0.0 0.0 0.0 16.28999089631971 0.0 0.0 0.0 34.51530692428229" Properties=species:S:1:pos:R:3:initial_magmoms:R:1 pbc="T T T"
Si       1.81861560      -0.49461327      -1.41639444       0.00000000
Si      -1.11840624      -1.70722458       1.27541931       0.00000000
Si       1.74161277       1.34907264       1.15018735       0.00000000
Si      -0.22882563       0.06807591      -2.69957072       0.00000000
Si      -2.23951662       0.71457714      -1.52573899       0.00000000
Si      -2.41816905      -0.19184733       2.64480107       0.00000000
Si       0.31526037       2.52749124       2.66646634       0.00000000
Si      -2.75674041       2.69576694      -0.29751111       0.00000000
Si       2.94811533      -2.53615752      -0.26479058       0.00000000
Si       0.32022882      -2.89841454       2.68950877       0.00000000
