10
Lattice="16.28999089631971 0.0 0.0 0.0 16.28999089631971 0.0 0.0 0.0 34.51530692428229" Properties=species:S:1:pos:R:3:initial_magmoms:R:1 pbc="T T T"
Si      -1.65693735      -1.07124669      -1.42800259       0.00000000
Si       1.12531320       1.67949900      -1.42779550       0.00000000
Si      -1.37037996       1.62965160       1.55532963       0.00000000
Si       1.98285138      -1.76604777      -0.00552245       0.00000000
Si       0.72143523       2.60203428       2.19230998       0.00000000
Si      -0.19862397      -2.32564185      -2.90701883       0.00000000
Si       2.11559859       0.88070256       3.06150944       0.00000000
Si       2.52527580       0.39234465      -2.90715690       0.00000000
Si       2.31093198      -2.00927376       2.37323932       0.00000000
Si       2.12426487       3.23980407       0.11390058       0.00000000
