10
Lattice="16.28999089631971 0.0 0.0 0.0 16.28999089631971 0.0 0.0 0.0 34.51530692428229" Properties=species:S:1:pos:R:3:initial_magmoms:R:1 pbc="T T T"
Si      -1.50206832       1.69870491       0.49960935       0.00000000
Si       2.17360728       0.81241488      -0.18548536       0.00000000
Si      -0.84155769      -0.94201812      -1.96150599       0.00000000
Si       0.05336604      -1.64840139       1.65970398       0.00000000
Si       0.99474885      -3.24309465       0.16066884       0.00000000
Si       0.97510311      -2.47049253      -2.12038004       0.00000000
Si       1.97791551       2.62601316       1.26167323       0.00000000
Si      -2.20889142      -1.59177735       2.31546066       0.00000000
Si      -2.69816157       0.68621625       2.28405171       0.00000000
Si      -2.50650972       2.11587552      -1.65304252       0.00000000
