10
Lattice="16.28999089631971 0.0 0.0 0.0 16.28999089631971 0.0 0.0 0.0 34.51530692428229" Properties=species:S:1:pos:R:3:initial_magmoms:R:1 pbc="T T T"
Si      -0.86701896      -2.03462100       0.67273822       0.00000000
Si       0.70679052       0.46382517       2.23524704       0.00000000
Si       1.57162662      -0.32602806      -1.78237145       0.00000000
Si      -1.52404353       1.66291578      -0.88417911       0.00000000
Si       0.32563710       3.06177066      -1.03873874       0.00000000
Si      -2.37856806      -2.12618709      -1.12157553       0.00000000
Si       2.15761050       1.98246042      -2.08175739       0.00000000
Si      -2.44646478      -1.41727887       2.25933874       0.00000000
Si      -1.72380780      -1.07510742      -3.11745878       0.00000000
Si      -0.82233549      -0.65484171       3.75416300       0.00000000
