10
Lattice="16.28999089631971 0.0 0.0 0.0 16.28999089631971 0.0 0.0 0.0 34.51530692428229" Properties=species:S:1:pos:R:3:initial_magmoms:R:1 pbc="T T T"
Si       1.36086660       1.34192133       1.35172372       0.00000000
Si      -1.35804843       1.35330804      -1.35852324       0.00000000
Si       1.35594702      -1.35964485      -1.35907548       0.00000000
Si      -1.36757808      -1.36513458       1.38434070       0.00000000
Si       0.02902878       2.67108759       2.71390558       0.00000000
Si       2.61588078      -0.09935271       2.78072726       0.00000000
Si       2.71624347       2.71013472      -0.00106998       0.00000000
Si      -0.00125433       2.71220355      -2.71611457       0.00000000
Si      -2.71269225      -2.71691136       0.00227801       0.00000000
Si       2.71353933      -0.00203625      -2.71632166       0.00000000
