10
Lattice="16.28999089631971 0.0 0.0 0.0 16.28999089631971 0.0 0.0 0.0 34.51530692428229" Properties=species:S:1:pos:R:3:initial_magmoms:R:1 pbc="T T T"
Si       0.76144347       1.84643892      -1.25839428       0.00000000
Si      -0.32708691       1.14849387       2.07702879       0.00000000
Si      -1.96405272      -0.83056194      -1.10535332       0.00000000
Si       1.68989202      -2.04563304       0.42733425       0.00000000
Si       2.09328129       0.51727266      -2.62057614       0.00000000
Si      -0.63516339      -2.18978325      -2.58795916       0.00000000
Si       3.34829547      -0.92400138      -1.19157261       0.00000000
Si       0.28706238      -2.68340283       2.50574365       0.00000000
Si       2.65658949       2.58188355       0.04107324       0.00000000
Si      -0.18557568      -0.62535681       3.67871250       0.00000000
