10
Lattice="16.28999089631971 0.0 0.0 0.0 16.28999089631971 0.0 0.0 0.0 34.51530692428229" Properties=species:S:1:pos:R:3:initial_magmoms:R:1 pbc="T T T"
Si      -1.35707140       1.35801246      -1.35552041       0.00000000
Si      -1.35689221      -1.35748397       1.35745326       0.00000000
Si       1.35818394       1.35699922       1.35769487       0.00000000
Si       1.35778483      -1.35474725      -1.36128447       0.00000000
Si      -0.00163213       2.69514942      -2.71652875       0.00000000
Si      -2.71396324      -0.00036967       2.71463041       0.00000000
Si       2.71499596       2.71362228      -0.00072482       0.00000000
Si      -2.71443565       2.71455081       0.00027612       0.00000000
Si       0.00067734       2.71455081       2.71459589       0.00000000
Si      -2.71461484      -2.71484822       0.00000000       0.00000000
