10
Lattice="16.28999089631971 0.0 0.0 0.0 16.28999089631971 0.0 0.0 0.0 34.51530692428229" Properties=species:S:1:pos:R:3:initial_magmoms:R:1 pbc="T T T"
Si      -1.35951537       1.35495333       1.36028352       0.00000000
Si       1.35569290      -1.36163223       1.35942064       0.00000000
Si       1.36642801       1.35672894      -1.36366602       0.00000000
Si      -1.36093520      -1.38010509      -1.35638329       0.00000000
Si       2.56392220      -0.07623720      -2.81285412       0.00000000
Si      -2.63233435      -0.02376711      -2.76840183       0.00000000
Si       2.71224265       2.71191033       0.00065579       0.00000000
Si      -0.00106211       2.71158453       2.71752969       0.00000000
Si       2.71326892      -0.00283446       2.71766776       0.00000000
Si      -2.71901344       2.71300176       0.00255413       0.00000000
