10
Lattice="16.28999089631971 0.0 0.0 0.0 16.28999089631971 0.0 0.0 0.0 34.51530692428229" Properties=species:S:1:pos:R:3:initial_magmoms:R:1 pbc="T T T"
Si       0.50839461       2.23676361      -0.01080330       0.00000000
Si       0.71356716      -1.35464382      -1.73815731       0.00000000
Si      -2.28858210       0.37069524      -0.16322298       0.00000000
Si       0.37224279      -1.27316124       1.93044220       0.00000000
Si      -2.99141415      -0.85203216       1.69035359       0.00000000
Si      -2.87363745      -0.45480051      -2.23469480       0.00000000
Si      -0.09260865      -3.45701493       1.23268036       0.00000000
Si       2.65970088       2.40212340       0.90226514       0.00000000
Si       1.17455787      -3.42842598      -0.74394334       0.00000000
Si      -1.13094954       3.32438175       1.28176115       0.00000000
