10
Lattice="16.28999089631971 0.0 0.0 0.0 16.28999089631971 0.0 0.0 0.0 34.51530692428229" Properties=species:S:1:pos:R:3:initial_magmoms:R:1 pbc="T T T"
Si       1.35637980       1.35589815      -1.35714263       0.00000000
Si      -1.35817875      -1.35931905      -1.35672844       0.00000000
Si      -1.35783666       1.35599589       1.36083577       0.00000000
Si       1.35483930      -1.35915615       1.36287217       0.00000000
Si      -0.00117288       2.71314837      -2.71473395       0.00000000
Si       2.71434636       2.71396287       0.00127707       0.00000000
Si       2.71428608      -0.00219915      -2.71431977       0.00000000
Si      -2.71616202       2.71322982       0.00020709       0.00000000
Si      -2.71585251      -0.00180819      -2.71463041       0.00000000
Si      -0.00105885      -2.71645524      -2.71435428       0.00000000
