10
Lattice="16.28999089631971 0.0 0.0 0.0 16.28999089631971 0.0 0.0 0.0 34.51530692428229" Properties=species:S:1:pos:R:3:initial_magmoms:R:1 pbc="T T T"
Si      -2.25067527      -0.50407776      -0.35405822       0.00000000
Si       0.51494319       1.03459419       2.03402269       0.00000000
Si      -0.09106110       1.07663868      -2.14091665       0.00000000
Si       1.41578019      -1.92599928      -0.62848958       0.00000000
Si       0.31970754      -0.80780481       3.40897522       0.00000000
Si      -0.10630854      -3.53405034       0.51496867       0.00000000
Si       0.75157173      -0.92914902      -3.38125942       0.00000000
Si      -1.06236864      -2.46510054       2.48482736       0.00000000
Si      -2.97492867      -1.33876107       1.65901367       0.00000000
Si      -1.44575379       2.06120628       2.73737601       0.00000000
