10
Lattice="16.28999089631971 0.0 0.0 0.0 16.28999089631971 0.0 0.0 0.0 34.51530692428229" Properties=species:S:1:pos:R:3:initial_magmoms:R:1 pbc="T T T"
Si       0.19523565       1.84239900      -1.37495254       0.00000000
Si       2.27718792      -0.41021478      -0.06765004       0.00000000
Si      -1.38207618      -1.65729573      -0.92414786       0.00000000
Si      -0.04144176       0.72598014       2.24684419       0.00000000
Si       2.73140361       1.77388326       1.02089432       0.00000000
Si      -1.76546133       2.86901109      -0.67159922       0.00000000
Si      -0.31970754       0.80780481      -3.40897522       0.00000000
Si       2.57526885      -1.84555926       1.66633092       0.00000000
Si      -1.24524018      -3.29738922       0.79499151       0.00000000
Si      -3.49032798       1.28264202      -0.30280296       0.00000000
