10
Lattice="16.28999089631971 0.0 0.0 0.0 16.28999089631971 0.0 0.0 0.0 34.51530692428229" Properties=species:S:1:pos:R:3:initial_magmoms:R:1 pbc="T T T"
Si      -2.32350786      -0.44965287      -0.18779789       0.00000000
Si       1.33999911      -0.23670999      -2.03826807       0.00000000
Si      -0.03326418       2.42492940       0.40303546       0.00000000
Si       0.53224317      -1.70197920       1.80653217       0.00000000
Si       3.29071132       0.36129591      -0.64364180       0.00000000
Si       0.83587248      -3.40474032       0.15925372       0.00000000
Si      -2.66230728       0.80211960       2.28967771       0.00000000
Si       1.09911888      -2.57771331      -2.33931075       0.00000000
Si      -3.08436489       1.26224694      -1.53413722       0.00000000
Si      -2.35159182       2.94202287       0.00714467       0.00000000
