10
Lattice="16.28999089631971 0.0 0.0 0.0 16.28999089631971 0.0 0.0 0.0 34.51530692428229" Properties=species:S:1:pos:R:3:initial_magmoms:R:1 pbc="T T T"
Si       1.35772263       1.35736425       1.35745326       0.00000000
Si      -1.35856971       1.35451350      -1.35993837       0.00000000
Si      -1.35754344      -1.35791811       1.35769487       0.00000000
Si       1.36018242      -1.35883035      -1.36214735       0.00000000
Si      -2.71350675      -2.71417464      -0.00044870       0.00000000
Si       0.00065160       2.71447856       2.71463041       0.00000000
Si       2.71461484       2.71484822       0.00000000       0.00000000
Si      -2.71479366      -0.00102627       2.71487201       0.00000000
Si      -2.71572219       2.71406866      -0.00003452       0.00000000
Si       2.71487969      -0.00017919       2.71497556       0.00000000
