10
Lattice="16.28999089631971 0.0 0.0 0.0 16.28999089631971 0.0 0.0 0.0 34.51530692428229" Properties=species:S:1:pos:R:3:initial_magmoms:R:1 pbc="T T T"
Si      -1.35830907      -1.35612621      -1.35731520       0.00000000
Si       1.35713619       1.35937862      -1.35755681       0.00000000
Si       1.35918873      -1.35819504       1.35772939       0.00000000
Si      -1.36041048       1.36199939       1.36131898       0.00000000
Si       2.71287144      -2.71342530      -0.00131158       0.00000000
Si      -0.00105885      -2.71301805      -2.71449235       0.00000000
Si       2.71621089      -0.00244350       2.71269755       0.00000000
Si       2.71420722       0.00226431      -2.71473395       0.00000000
Si       2.71480995       2.71497515      -0.00144964       0.00000000
Si      -2.71510317      -2.71502172       0.00027612       0.00000000
