10
Lattice="16.28999089631971 0.0 0.0 0.0 16.28999089631971 0.0 0.0 0.0 34.51530692428229" Properties=species:S:1:pos:R:3:initial_magmoms:R:1 pbc="T T T"
Si      -1.41749064       1.55670956       0.87851860       0.00000000
Si      -1.38626271      -1.90101042      -0.02119241       0.00000000
Si      -0.27629469       0.09710469      -2.34286583       0.00000000
Si       2.17113120       0.36108414       1.01354255       0.00000000
Si      -0.95987196       3.54143690      -0.22845694       0.00000000
Si       1.28251170       1.68076052      -3.03013500       0.00000000
Si      -0.38400417      -3.37390335       1.48077653       0.00000000
Si       3.17171187      -1.73773575       0.99704423       0.00000000
Si       0.31123674      -1.96810893      -3.21986575       0.00000000
Si      -3.63925116       0.77263470       0.89308407       0.00000000
