10
Lattice="16.28999089631971 0.0 0.0 0.0 16.28999089631971 0.0 0.0 0.0 34.51530692428229" Properties=species:S:1:pos:R:3:initial_magmoms:R:1 pbc="T T T"
Si       0.58753143      -2.06521362      -0.87699992       0.00000000
Si       1.55880639       1.58365583      -0.68726918       0.00000000
Si       0.27629469      -0.09710469       2.34286583       0.00000000
Si      -1.01906982      -0.56474172      -2.19130903       0.00000000
Si      -1.10996802      -1.99811511       2.32167342       0.00000000
Si      -0.88451442      -3.40923636       0.45315172       0.00000000
Si      -1.14119595       1.45960487       3.22138443       0.00000000
Si       1.24989912       3.44925179       0.71084314       0.00000000
Si       0.62599212       2.87855607      -2.55665376       0.00000000
Si       2.93988888      -2.53622268      -0.83817018       0.00000000
