10
Lattice="16.28999089631971 0.0 0.0 0.0 16.28999089631971 0.0 0.0 0.0 34.51530692428229" Properties=species:S:1:pos:R:3:initial_magmoms:R:1 pbc="T T T"
Si      -0.29808094       1.43534448      -1.73398096       0.00000000
Si       2.29745200      -0.27165204      -0.30604740       0.00000000
Si      -0.83163612       1.39782861       1.68448598       0.00000000
Si      -1.48393659      -1.82614158      -0.28533820       0.00000000
Si      -0.88848822      -2.21252409       2.04858816       0.00000000
Si      -2.57526885       1.84555926      -1.66633092       0.00000000
Si      -1.81662726      -0.17317899       3.11134957       0.00000000
Si       0.15613476       3.61944252      -0.64543660       0.00000000
Si      -2.61671061       2.57153940       0.58051327       0.00000000
Si       2.46949069      -2.05232823      -1.93758687       0.00000000
