10
Lattice="16.28999089631971 0.0 0.0 0.0 16.28999089631971 0.0 0.0 0.0 34.51530692428229" Properties=species:S:1:pos:R:3:initial_magmoms:R:1 pbc="T T T"
Si      -0.01548039      -2.30078331       0.31056891       0.00000000
Si      -0.49176971       1.09434591       2.01417638       0.00000000
Si       2.32008696       0.36180090      -0.13050245       0.00000000
Si      -0.99988739       0.39296367      -2.16390386       0.00000000
Si       2.52900621       1.31655780      -2.26144417       0.00000000
Si       1.84331124      -3.04715853      -1.00971135       0.00000000
Si      -2.19863591      -3.13284393       0.03879523       0.00000000
Si       1.51814655       1.53867195       3.16926628       0.00000000
Si       0.42212440       2.30146749      -3.08501437       0.00000000
Si       3.49782138      -1.68505389      -0.06792616       0.00000000
