10
Lattice="16.28999089631971 0.0 0.0 0.0 16.28999089631971 0.0 0.0 0.0 34.51530692428229" Properties=species:S:1:pos:R:3:initial_magmoms:R:1 pbc="T T T"
Si       1.85727014      -1.05246432       0.88932190       0.00000000
Si      -1.72150344      -1.49876145      -0.37255843       0.00000000
Si      -0.66886088       1.75190805       1.36345893       0.00000000
Si       1.11987071       0.25479189      -2.05390352       0.00000000
Si       1.92845744      -2.72007162      -0.82909265       0.00000000
Si      -0.30614449      -3.42197514      -0.33538542       0.00000000
Si      -3.45604635      -0.35758179       0.90682117       0.00000000
Si       3.48260489       0.60743781       0.70428523       0.00000000
Si       0.65133773       3.49168005       0.68858076       0.00000000
Si      -2.94178734       1.93916160       0.93581404       0.00000000
