10
Lattice="16.28999089631971 0.0 0.0 0.0 16.28999089631971 0.0 0.0 0.0 34.51530692428229" Properties=species:S:1:pos:R:3:initial_magmoms:R:1 pbc="T T T"
Si       0.00766282      -1.35009891       1.90296800       0.00000000
Si       1.98023195       1.14754905      -0.48045334       0.00000000
Si      -0.17945227      -1.52718750      -1.82199504       0.00000000
Si      -1.46372459       1.79168823       0.76693055       0.00000000
Si       1.80179129       1.54311912      -2.78576649       0.00000000
Si      -3.41443680       1.19368233      -0.62769572       0.00000000
Si       1.68031676      -2.97015570      -1.54625210       0.00000000
Si       3.80976185      -0.21822084       0.01259809       0.00000000
Si      -0.38762055       3.84269697      -0.00293380       0.00000000
Si      -1.78854819      -2.96461710       1.77084333       0.00000000
