10
Lattice="16.28999089631971 0.0 0.0 0.0 16.28999089631971 0.0 0.0 0.0 34.51530692428229" Properties=species:S:1:pos:R:3:initial_magmoms:R:1 pbc="T T T"
Si      -1.16443526       1.48532709       1.39863005       0.00000000
Si      -1.36433981      -1.34718530      -1.36691046       0.00000000
Si       1.35111215       1.36525350      -1.36653080       0.00000000
Si       1.18109342      -1.47784739       1.48816281       0.00000000
Si       0.93817694       2.12938482       2.40019578       0.00000000
Si      -2.38399656      -0.31688611       2.71601102       0.00000000
Si       2.38582037       0.07411624       2.85162174       0.00000000
Si      -0.60929813      -2.28796538       2.93545946       0.00000000
Si       2.69961464      -2.70671612       0.01090684       0.00000000
Si      -2.71870719      -2.70990896      -0.01094136       0.00000000
