10
Lattice="16.28999089631971 0.0 0.0 0.0 16.28999089631971 0.0 0.0 0.0 34.51530692428229" Properties=species:S:1:pos:R:3:initial_magmoms:R:1 pbc="T T T"
Si      -1.34824185      -1.35588186      -1.37277807       0.00000000
Si       1.36733373       1.36197432      -1.37778279       0.00000000
Si       1.28234880      -1.39204566       1.43031512       0.00000000
Si      -1.51852122       1.22886873       1.47725596       0.00000000
Si      -0.54323892      -2.43297666       2.52213843       0.00000000
Si      -2.69961464       2.70671612      -0.01090684       0.00000000
Si       2.72129337       2.69098324       0.00338250       0.00000000
Si      -2.71558047      -2.70425403       0.00103546       0.00000000
Si      -2.70606874       0.00161271      -2.73444220       0.00000000
Si       2.72445363      -2.71630863       0.01183876       0.00000000
