10
Lattice="16.28999089631971 0.0 0.0 0.0 16.28999089631971 0.0 0.0 0.0 34.51530692428229" Properties=species:S:1:pos:R:3:initial_magmoms:R:1 pbc="T T T"
Si       1.20472695       1.55196363       1.36345893       0.00000000
Si      -1.18109342       1.47784739      -1.48816281       0.00000000
Si      -1.79039155      -0.81011799       1.44729666       0.00000000
Si       1.51852122      -1.22886873      -1.47725596       0.00000000
Si      -2.60645606      -2.52117072      -0.00055225       0.00000000
Si      -0.24291648       3.60723221       0.91203298       0.00000000
Si      -2.34552868       2.96317448      -0.08953276       0.00000000
Si      -2.54543323       0.13066209      -2.85507327       0.00000000
Si       2.80087002      -2.62091439      -0.04694084       0.00000000
Si       0.17027937      -2.58475059      -2.85003403       0.00000000
