10
Lattice="16.28999089631971 0.0 0.0 0.0 16.28999089631971 0.0 0.0 0.0 34.49183129400761" Properties=species:S:1:pos:R:3:initial_magmoms:R:1 pbc="T T T"
Si       1.51645239       1.81263717       0.02531702       0.00000000
Si      -1.50202922      -1.11768948       1.44862323       0.00000000
Si       1.78150698      -1.53046179      -0.31311702       0.00000000
Si      -1.32208825       0.09645309      -2.05198917       0.00000000
Si       2.02312026      -0.80562195      -2.50845432       0.00000000
Si       2.24368686       1.52870247      -2.18364457       0.00000000
Si      -1.64329529      -3.18705705       0.19781076       0.00000000
Si       0.69084261      -3.53383857       0.04932335       0.00000000
Si       0.16293258       3.55817161       0.59970981       0.00000000
Si      -0.92540884       2.62978985       2.44805909       0.00000000
