10
Lattice="16.28999089631971 0.0 0.0 0.0 16.28999089631971 0.0 0.0 0.0 34.49183129400761" Properties=species:S:1:pos:R:3:initial_magmoms:R:1 pbc="T T T"
Si       1.22254821      -1.35253780       1.53240049       0.00000000
Si      -1.04659992      -1.55822877      -1.48990795       0.00000000
Si      -1.48574574       1.34467271       1.50672131       0.00000000
Si       1.58847048       1.30046165      -1.55971945       0.00000000
Si       2.48507208       2.60434583       0.20891024       0.00000000
Si      -2.65048074      -2.64560256      -0.05965710       0.00000000
Si       2.68037289      -2.64710124       0.20389168       0.00000000
Si      -0.05981688       2.50504199      -2.95425946       0.00000000
Si       2.58455511      -0.00461659       2.90716287       0.00000000
Si      -2.95433811       2.54039129       0.02293708       0.00000000
