10
Lattice="16.28999089631971 0.0 0.0 0.0 16.28999089631971 0.0 0.0 0.0 34.49183129400761" Properties=species:S:1:pos:R:3:initial_magmoms:R:1 pbc="T T T"
Si      -1.35405738       1.35250983       1.35684042       0.00000000
Si       1.35826020       1.35628911      -1.35656448       0.00000000
Si      -1.35633798      -1.35829278      -1.35687491       0.00000000
Si       1.35599589      -1.35871632       1.36201420       0.00000000
Si      -2.71138905       2.71536381       0.00162112       0.00000000
Si      -2.71409319      -0.00084708      -2.71378431       0.00000000
Si       0.00068418       2.71388142      -2.71406025       0.00000000
Si      -2.71339272      -2.71498425       0.00068984       0.00000000
Si       2.71583622      -0.00133578      -2.71423271       0.00000000
Si       0.00089595      -2.71596491      -2.71426720       0.00000000
