10
Lattice="16.28999089631971 0.0 0.0 0.0 16.28999089631971 0.0 0.0 0.0 34.49183129400761" Properties=species:S:1:pos:R:3:initial_magmoms:R:1 pbc="T T T"
Si      -2.19637323       0.33568803       0.99740084       0.00000000
Si       1.51045604       0.06366132       2.03177695       0.00000000
Si      -0.65607228      -2.24799556      -1.02320075       0.00000000
Si       0.96426537       1.04355369      -2.41608515       0.00000000
Si      -0.48870880       2.62534527      -0.98884686       0.00000000
Si       1.13102936      -2.25598581       1.92509366       0.00000000
Si      -2.30766651      -1.12564063      -2.37407407       0.00000000
Si      -2.97265689       1.72760337      -0.78965643       0.00000000
Si      -0.96525648      -3.13992098       1.32903999       0.00000000
Si      -2.92285836      -1.85602558       1.45410744       0.00000000
