10
Lattice="16.28999089631971 0.0 0.0 0.0 16.28999089631971 0.0 0.0 0.0 34.49183129400761" Properties=species:S:1:pos:R:3:initial_magmoms:R:1 pbc="T T T"
Si      -1.64077767      -0.28637820      -1.66164490       0.00000000
Si      -1.56098925      -0.43826616       1.72179869       0.00000000
Si       1.74669525      -1.61494173      -0.44028847       0.00000000
Si       0.78022584       2.28810969       0.30307989       0.00000000
Si      -0.95630445       1.36456443       3.02824651       0.00000000
Si      -0.81829557      -2.57061087       2.25693975       0.00000000
Si      -0.34626024       0.59412888      -3.47039755       0.00000000
Si       3.21170382      -0.23045463      -1.66040319       0.00000000
Si       2.70839169       1.77930783       1.62315200       0.00000000
Si      -1.05415848       3.17254266       1.54423464       0.00000000
