10
Lattice="16.28999089631971 0.0 0.0 0.0 16.28999089631971 0.0 0.0 0.0 34.49183129400761" Properties=species:S:1:pos:R:3:initial_magmoms:R:1 pbc="T T T"
Si       0.09785403      -1.80797823       1.48401187       0.00000000
Si       1.83438432      -0.88443297      -1.24115475       0.00000000
Si      -1.89076401      -0.05203026      -1.48977201       0.00000000
Si       0.60338160       2.08274166       1.08000883       0.00000000
Si       2.38570308      -1.85217300       1.99863028       0.00000000
Si      -0.50683077      -3.61080882       0.17756405       0.00000000
Si       1.05415848      -3.17254266      -1.54423464       0.00000000
Si      -1.45813419       1.53635877      -3.17380212       0.00000000
Si       1.02014496       3.60878886      -0.71963797       0.00000000
Si      -3.91774500       0.25835940      -0.30639111       0.00000000
