10
Lattice="16.28999089631971 0.0 0.0 0.0 16.28999089631971 0.0 0.0 0.0 34.49183129400761" Properties=species:S:1:pos:R:3:initial_magmoms:R:1 pbc="T T T"
Si       1.60388082       1.08737379      -1.43025084       0.00000000
Si       1.16921475      -1.43081586       1.56207383       0.00000000
Si      -1.88478558      -0.97603164      -1.34653912       0.00000000
Si      -1.53367092       1.28244021       1.57519108       0.00000000
Si      -0.29949165       1.99378101      -2.84548596       0.00000000
Si       2.65048074       2.64560256       0.05965710       0.00000000
Si       2.65184910      -2.76161112       0.03705804       0.00000000
Si      -3.71161297       0.61638102      -0.94667126       0.00000000
Si       2.51730999      -0.07514577       2.95743819       0.00000000
Si      -2.98981121       2.52006856       0.16471583       0.00000000
