10
Lattice="16.28999089631971 0.0 0.0 0.0 16.28999089631971 0.0 0.0 0.0 34.49183129400761" Properties=species:S:1:pos:R:3:initial_magmoms:R:1 pbc="T T T"
Si       1.36433637       1.34298018      -1.37708713       0.00000000
Si      -1.34688978      -1.37512035      -1.37536254       0.00000000
Si       1.36868580      -1.37875302       1.35656448       0.00000000
Si      -1.19211849       1.49292963       1.49601503       0.00000000
Si      -2.68910433       2.70501966      -0.00068984       0.00000000
Si       2.72386719       2.69949735      -0.03669933       0.00000000
Si      -2.69762400      -2.73766482      -0.00993365       0.00000000
Si       0.00734679       2.70216891      -2.73478985       0.00000000
Si      -2.70865233      -0.01467729      -2.73513477       0.00000000
Si       2.72414412      -0.01268991      -2.73510027       0.00000000
