10
Lattice="16.28999089631971 0.0 0.0 0.0 16.28999089631971 0.0 0.0 0.0 34.49183129400761" Properties=species:S:1:pos:R:3:initial_magmoms:R:1 pbc="T T T"
Si      -1.36637262      -1.34783460      -1.36970588       0.00000000
Si      -1.17841860       1.35148356       1.53350768       0.00000000
Si       1.34892603       1.36826226      -1.37105106       0.00000000
Si       1.51034364      -1.20845736       1.41244128       0.00000000
Si       0.84717774       2.16340974       3.02545267       0.00000000
Si       2.70749574      -2.69916015      -0.00375961       0.00000000
Si      -2.69964396       2.71766070       0.00817457       0.00000000
Si       2.62482399       0.41666562       2.76090018       0.00000000
Si      -2.71972953      -2.70465151       0.01793576       0.00000000
Si       0.26106354      -2.69376979       2.72820190       0.00000000
