10
Lattice="16.28999089631971 0.0 0.0 0.0 16.28999089631971 0.0 0.0 0.0 34.49183129400761" Properties=species:S:1:pos:R:3:initial_magmoms:R:1 pbc="T T T"
Si      -1.51685964       0.58753795       1.68178814       0.00000000
Si       1.24928010       1.48531243      -1.31576062       0.00000000
Si      -1.42431615      -1.32858699      -1.32296942       0.00000000
Si       0.47597751       0.62893084       3.04269860       0.00000000
Si       2.32903017      -0.88365757       2.54670579       0.00000000
Si       2.44643220      -0.00539036      -2.73196152       0.00000000
Si      -2.35976940      -2.82703243       0.32325762       0.00000000
Si      -0.26106354       2.69376979      -2.72820190       0.00000000
Si      -0.26568990      -2.72875486      -2.76065874       0.00000000
Si       2.36376045       3.11043541       0.03269827       0.00000000
