10
Lattice="16.28999089631971 0.0 0.0 0.0 16.28999089631971 0.0 0.0 0.0 34.49183129400761" Properties=species:S:1:pos:R:3:initial_magmoms:R:1 pbc="T T T"
Si       1.54901610      -1.74295181      -0.17673624       0.00000000
Si      -0.77722848       0.07889247      -2.20616775       0.00000000
Si       0.91896777       1.92373497       0.97198035       0.00000000
Si      -1.79315433      -0.20841426       1.54495897       0.00000000
Si      -3.27560949       0.94299552       0.08667802       0.00000000
Si       3.48242733      -0.42106392      -0.40586561       0.00000000
Si      -3.02493897      -0.36070947      -1.88515209       0.00000000
Si       2.10756762       0.94169232       2.82905608       0.00000000
Si       1.57944582      -2.80276685       1.89853493       0.00000000
Si      -2.21205168      -2.51814797       1.69931000       0.00000000
