10
Lattice="16.28999089631971 0.0 0.0 0.0 16.28999089631971 0.0 0.0 0.0 34.49183129400761" Properties=species:S:1:pos:R:3:initial_magmoms:R:1 pbc="T T T"
Si       0.89660160       1.30388418       1.76862969       0.00000000
Si      -1.64828736       1.20458034      -1.39454001       0.00000000
Si       1.89599310      -1.11183323      -1.17289538       0.00000000
Si      -1.58847048      -1.30046165       1.55971945       0.00000000
Si       1.73926701       2.37840516      -1.38326118       0.00000000
Si       2.69395875       2.32181370       0.72195517       0.00000000
Si       2.54687634      -2.76745013       0.32939717       0.00000000
Si      -2.63507040      -2.85869042       0.06981151       0.00000000
Si       2.33474796       0.04106709       3.11981345       0.00000000
Si      -3.01931892       2.48883507       0.21281472       0.00000000
