10
Lattice="16.28999089631971 0.0 0.0 0.0 16.28999089631971 0.0 0.0 0.0 34.49183129400761" Properties=species:S:1:pos:R:3:initial_magmoms:R:1 pbc="T T T"
Si       1.35760860       1.35747828      -1.35687491       0.00000000
Si       1.35785295      -1.35716877       1.35728881       0.00000000
Si      -1.35757602       1.35762489       1.35766822       0.00000000
Si      -1.35702216      -1.35905841      -1.35749576       0.00000000
Si       0.00117288      -2.71602030      -2.70895545       0.00000000
Si       2.71467963      -2.71479855       0.00006898       0.00000000
Si      -2.71494027      -2.71462913      -0.00003449       0.00000000
Si      -2.71583622       0.00133578       2.71423271       0.00000000
Si      -2.71515204       2.71521720       0.00017246       0.00000000
Si      -0.00057015      -2.71582319       2.71478457       0.00000000
