10
Lattice="16.28999089631971 0.0 0.0 0.0 16.28999089631971 0.0 0.0 0.0 34.49183129400761" Properties=species:S:1:pos:R:3:initial_magmoms:R:1 pbc="T T T"
Si      -1.35731538       1.35573525       1.35877196       0.00000000
Si       1.35865116       1.35586557      -1.35832357       0.00000000
Si       1.35628911      -1.35812988       1.35897891       0.00000000
Si      -1.35674523      -1.35922131      -1.35825458       0.00000000
Si      -0.00190593       2.69645112       2.72609790       0.00000000
Si      -2.71145421       2.71365336      -0.00282833       0.00000000
Si       0.00138465       2.71358820      -2.71592281       0.00000000
Si      -2.71432125      -0.00162900      -2.71575035       0.00000000
Si      -2.71500543      -2.71551042      -0.00169010       0.00000000
Si      -2.69228088      -0.00873144       2.73820454       0.00000000
