10
Lattice="16.28999089631971 0.0 0.0 0.0 16.28999089631971 0.0 0.0 0.0 34.49183129400761" Properties=species:S:1:pos:R:3:initial_magmoms:R:1 pbc="T T T"
Si       1.51715286       1.10495070      -1.41723565       0.00000000
Si      -1.11448035      -1.62512298      -1.34845890       0.00000000
Si       1.81710063      -0.01133784       1.67471731       0.00000000
Si      -1.77764625       1.74674412       0.26455249       0.00000000
Si      -1.19004966       1.83997179       2.76231434       0.00000000
Si       0.08307900       2.33447103      -2.77269639       0.00000000
Si       1.20840849       2.05260516       2.80605001       0.00000000
Si       2.96787510       2.32347528       0.00851949       0.00000000
Si       2.48209101      -2.86458184       0.09029966       0.00000000
Si      -2.62482399      -0.41666562      -2.76090018       0.00000000
