10
Lattice="16.28999089631971 0.0 0.0 0.0 16.28999089631971 0.0 0.0 0.0 34.49183129400761" Properties=species:S:1:pos:R:3:initial_magmoms:R:1 pbc="T T T"
Si      -0.68870862       1.89061740       1.29613476       0.00000000
Si       2.39845815       0.21263337       0.04373567       0.00000000
Si      -0.56544219      -2.01357432       1.28896046       0.00000000
Si      -0.58759659      -0.09322767      -2.49776185       0.00000000
Si       1.19004966      -1.83997179      -2.76231434       0.00000000
Si       3.00715029      -1.85130963      -1.08759703       0.00000000
Si      -2.91149541      -1.70403174       1.67844243       0.00000000
Si      -1.56250422       1.01172303       3.34315711       0.00000000
Si       1.02872979       3.58722090       1.51957297       0.00000000
Si       0.86123601      -2.25233685       3.23478371       0.00000000
