10
Lattice="16.28999089631971 0.0 0.0 0.0 16.28999089631971 0.0 0.0 0.0 34.49183129400761" Properties=species:S:1:pos:R:3:initial_magmoms:R:1 pbc="T T T"
Si      -0.61165692       1.90895994       1.16047831       0.00000000
Si       0.87379560       0.87889437      -2.04702235       0.00000000
Si      -2.20768596      -0.80034399      -0.56135487       0.00000000
Si       1.35027810      -1.62492750       1.24863948       0.00000000
Si      -1.34899119      -2.71575477      -1.66471468       0.00000000
Si      -1.08119988       0.89363682       3.21212257       0.00000000
Si      -1.86142572      -1.39447287       2.90904268       0.00000000
Si      -2.48515353       2.78997201      -0.05953293       0.00000000
Si      -0.95535963       2.22466014      -2.85865008       0.00000000
Si      -3.16700406       1.15786062      -1.67175101       0.00000000
