10
Lattice="16.28999089631971 0.0 0.0 0.0 16.28999089631971 0.0 0.0 0.0 34.49183129400761" Properties=species:S:1:pos:R:3:initial_magmoms:R:1 pbc="T T T"
Si      -2.34605322       0.30954258       0.38948198       0.00000000
Si       1.42667820      -0.23876253       1.94582326       0.00000000
Si       0.56544219       2.01357432      -1.28896046       0.00000000
Si      -0.13229109      -2.30790204      -1.04127448       0.00000000
Si       0.35321607       1.40036985       3.30283614       0.00000000
Si      -2.80798875      -1.82895975       1.34480276       0.00000000
Si      -0.99706203       3.02529735       2.05419665       0.00000000
Si      -3.45580947      -0.41133879      -1.71624550       0.00000000
Si      -0.12326643       3.90419172       0.00717430       0.00000000
Si       2.96390034       2.22620769      -1.24522479       0.00000000
