10
Lattice="16.28999089631971 0.0 0.0 0.0 16.28999089631971 0.0 0.0 0.0 34.49183129400761" Properties=species:S:1:pos:R:3:initial_magmoms:R:1 pbc="T T T"
Si       0.52277868      -1.98783612       1.06131424       0.00000000
Si      -2.28784905       0.04419477      -0.51461841       0.00000000
Si      -0.09179415       1.45797129       1.88432429       0.00000000
Si       1.37684709       0.45893817      -1.91971293       0.00000000
Si      -0.55131876       0.96774003      -3.23978503       0.00000000
Si      -0.11894958       3.52575873       0.80869593       0.00000000
Si      -2.38570308       1.85217300      -1.99863028       0.00000000
Si      -0.98126073      -2.03949171       2.93115195       0.00000000
Si       0.02331099      -3.76893585      -0.41255702       0.00000000
Si      -3.51800469       0.00319284       1.42775566       0.00000000
