10
Lattice="16.28999089631971 0.0 0.0 0.0 16.28999089631971 0.0 0.0 0.0 34.49183129400761" Properties=species:S:1:pos:R:3:initial_magmoms:R:1 pbc="T T T"
Si      -0.52277868       1.98783612      -1.06131424       0.00000000
Si      -0.49946769      -1.78109973      -1.47387127       0.00000000
Si      -1.50403941      -0.05165559       1.86983771       0.00000000
Si       2.33997705       0.04587264       0.61361002       0.00000000
Si      -0.61457283       3.44580741       0.82301005       0.00000000
Si      -2.81062773       2.03203089      -1.57593265       0.00000000
Si      -3.66331149      -0.19153782       1.07169629       0.00000000
Si      -0.49109463       1.54129464       3.46822456       0.00000000
Si       1.08097182      -1.92951792      -3.18739191       0.00000000
Si      -0.28206135      -3.87007557      -0.43128610       0.00000000
