10
Lattice="16.28999089631971 0.0 0.0 0.0 16.28999089631971 0.0 0.0 0.0 34.49183129400761" Properties=species:S:1:pos:R:3:initial_magmoms:R:1 pbc="T T T"
Si       0.95469174      -0.05659146       2.10521635       0.00000000
Si      -1.36374993       1.77070671      -0.63896153       0.00000000
Si       1.98379620      -0.28963620      -1.21942489       0.00000000
Si      -1.73926701      -2.37840516       1.38326118       0.00000000
Si      -2.37669471       0.17775648      -2.23734838       0.00000000
Si       2.35214568      -2.31765975      -0.13065513       0.00000000
Si      -0.84266541      -1.07452098       3.15189087       0.00000000
Si       0.15672609      -3.49023838       0.21036580       0.00000000
Si      -3.38755437      -1.17382482      -0.01127884       0.00000000
Si       0.29776491       3.21535278      -1.64633052       0.00000000
