10
Lattice="16.28999089631971 0.0 0.0 0.0 16.28999089631971 0.0 0.0 0.0 34.49183129400761" Properties=species:S:1:pos:R:3:initial_magmoms:R:1 pbc="T T T"
Si       1.36374993      -1.77070671       0.63896153       0.00000000
Si       1.66151484       1.44464607      -1.00736899       0.00000000
Si      -1.01294478      -1.59295023      -1.59838685       0.00000000
Si      -1.01937933       1.24326909       1.98152232       0.00000000
Si      -0.12347820       1.90451277      -2.64521451       0.00000000
Si      -2.72298753       2.26584126       0.54921374       0.00000000
Si      -2.02380444      -2.94453153       0.62768270       0.00000000
Si      -2.42092206       2.17717479      -1.90522635       0.00000000
Si       0.49109463      -1.54129464      -3.46822456       0.00000000
Si       3.34754613      -2.06034291      -0.58046335       0.00000000
