10
Lattice="16.28999089631971 0.0 0.0 0.0 16.28999089631971 0.0 0.0 0.0 34.49183129400761" Properties=species:S:1:pos:R:3:initial_magmoms:R:1 pbc="T T T"
Si       1.35606105       1.35718506       1.35739229       0.00000000
Si      -1.35835794      -1.35804843       1.35680593       0.00000000
Si      -1.35891180       1.35775521      -1.35994468       0.00000000
Si       1.35835794      -1.35956340      -1.36084147       0.00000000
Si       2.71362078      -0.00060273       2.71430169       0.00000000
Si      -0.00107514       2.71425609       2.71419821       0.00000000
Si       2.71422351       2.71437012       0.00075882       0.00000000
Si       0.01065366       2.71093293      -2.71867181       0.00000000
Si      -2.71611315      -0.00083079       2.71395677       0.00000000
Si      -2.71551042       2.71456560      -0.00037941       0.00000000
