10
Lattice="16.28999089631971 0.0 0.0 0.0 16.28999089631971 0.0 0.0 0.0 34.49183129400761" Properties=species:S:1:pos:R:3:initial_magmoms:R:1 pbc="T T T"
Si       1.95437646      -0.78047019      -1.08059519       0.00000000
Si      -1.66151484      -1.44464607       1.00736899       0.00000000
Si      -1.78499304       0.45986670      -1.63784552       0.00000000
Si       1.59523083       1.37658645       1.77802041       0.00000000
Si       3.04818480      -1.60288713       0.96014964       0.00000000
Si      -0.29776491      -3.21535278       1.64633052       0.00000000
Si       1.16955684      -2.94006807      -1.84724555       0.00000000
Si       1.68603129      -3.50498898       0.42690563       0.00000000
Si       2.69780319       0.73805103      -2.79408134       0.00000000
Si      -2.68089417      -0.20137698       2.98889131       0.00000000
