10
Lattice="16.28999089631971 0.0 0.0 0.0 16.28999089631971 0.0 0.0 0.0 34.49183129400761" Properties=species:S:1:pos:R:3:initial_magmoms:R:1 pbc="T T T"
Si       1.35565380       1.35700587      -1.35770271       0.00000000
Si      -1.35980775       1.35567009       1.35801314       0.00000000
Si      -1.35938421      -1.35808101      -1.35794416       0.00000000
Si       1.36083402      -1.36104579       1.35697839       0.00000000
Si      -0.00027693       2.71218726       2.69840095       0.00000000
Si       2.72556135      -0.01216863       2.69636593       0.00000000
Si       2.71278999      -0.00006516      -2.71450864       0.00000000
Si       2.71376739      -2.71362078      -0.00120721       0.00000000
Si       2.71399545       2.71430496      -0.00072433       0.00000000
Si      -0.00158013       2.71399545      -2.71464661       0.00000000
