10
Lattice="16.28999089631971 0.0 0.0 0.0 16.28999089631971 0.0 0.0 0.0 34.49183129400761" Properties=species:S:1:pos:R:3:initial_magmoms:R:1 pbc="T T T"
Si      -0.83813679      -2.23840890       0.01321038       0.00000000
Si       1.90938348       0.55723203       1.34411292       0.00000000
Si      -1.89519489       1.44348948       0.54028035       0.00000000
Si       0.13983336       0.35328123      -2.90221329       0.00000000
Si       1.95352938       2.90031300       1.19024478       0.00000000
Si       1.48913406      -0.67893462       3.31311471       0.00000000
Si      -2.60420085      -2.14055487      -1.54985681       0.00000000
Si      -3.43686420      -0.09741420       1.41916719       0.00000000
Si       0.53659260       2.76727419      -2.52656255       0.00000000
Si       2.14215129      -1.57263660      -2.81536281       0.00000000
