10
Lattice="16.28999089631971 0.0 0.0 0.0 16.28999089631971 0.0 0.0 0.0 34.49183129400761" Properties=species:S:1:pos:R:3:initial_magmoms:R:1 pbc="T T T"
Si      -0.37729269      -0.54232668      -2.21921226       0.00000000
Si      -0.77581125      -1.94624286       1.11746180       0.00000000
Si       2.01297159       0.93540438       0.90892752       0.00000000
Si      -1.77474663       1.71874161       0.01665922       0.00000000
Si      -2.13395742      -0.56200500       2.41451749       0.00000000
Si       0.62439570       2.17838025       2.39906515       0.00000000
Si      -2.57271228      -1.71490531      -1.87819133       0.00000000
Si      -0.74564217       1.48569687      -3.30798201       0.00000000
Si      -0.64640349       3.58560819       1.03045611       0.00000000
Si      -3.57210378       0.70081209       1.06333374       0.00000000
