10
Lattice="16.28999089631971 0.0 0.0 0.0 16.28999089631971 0.0 0.0 0.0 34.49183129400761" Properties=species:S:1:pos:R:3:initial_magmoms:R:1 pbc="T T T"
Si       1.35562122      -1.35740076       1.35497786       0.00000000
Si       1.35564462       1.35709058      -1.35677143       0.00000000
Si      -1.35935163      -1.35763042      -1.35701288       0.00000000
Si      -1.35913986       1.35658559       1.36070350       0.00000000
Si       2.69540760       0.00182122       2.71537094       0.00000000
Si       2.71279392      -2.71256586      -0.00068984       0.00000000
Si       2.71342108       0.00001955      -2.71447415       0.00000000
Si       2.71365077       2.71549739       0.00000000       0.00000000
Si      -0.00229689       2.71530191      -2.71468110       0.00000000
Si      -0.00205254      -2.71554693      -2.71447415       0.00000000
