10
Lattice="16.28999089631971 0.0 0.0 0.0 16.28999089631971 0.0 0.0 0.0 34.49183129400761" Properties=species:S:1:pos:R:3:initial_magmoms:R:1 pbc="T T T"
Si      -0.72648513      -2.19171361       0.45670659       0.00000000
Si      -0.54592677       1.06570809       2.05968086       0.00000000
Si      -0.77628366       1.39191534      -1.78705727       0.00000000
Si       2.19637323      -0.33568803      -0.99740084       0.00000000
Si       0.01374876       3.18125781       1.30199838       0.00000000
Si       1.70766443       2.28965724      -1.98624771       0.00000000
Si       1.54030095      -2.58368359      -2.02060159       0.00000000
Si      -0.11129328      -1.46132866      -3.37147492       0.00000000
Si       1.23111675      -3.47560901       0.33163914       0.00000000
Si      -1.38497580       3.45585834      -0.65572457       0.00000000
