10
Lattice="16.28999089631971 0.0 0.0 0.0 16.28999089631971 0.0 0.0 0.0 34.49183129400761" Properties=species:S:1:pos:R:3:initial_magmoms:R:1 pbc="T T T"
Si      -0.53571294       1.17312435       1.98728246       0.00000000
Si      -1.39797522       0.62232687      -1.81827239       0.00000000
Si      -0.64736460      -2.19750797       0.66345075       0.00000000
Si       2.30017799       0.32299812      -0.64399734       0.00000000
Si      -2.57507433      -1.50416973       1.96807050       0.00000000
Si      -2.06322624      -2.90118221      -1.10891300       0.00000000
Si       0.76787755       0.21136275       3.66034417       0.00000000
Si       3.59382554      -0.63205200       1.09373658       0.00000000
Si      -0.83829969       2.73787659      -2.57595488       0.00000000
Si       1.03119677      -3.30787183       1.91985089       0.00000000
