10
Lattice="16.28999089631971 0.0 0.0 0.0 16.28999089631971 0.0 0.0 0.0 34.49183129400761" Properties=species:S:1:pos:R:3:initial_magmoms:R:1 pbc="T T T"
Si      -1.71626553      -0.93195579       1.37332752       0.00000000
Si      -1.17418320      -0.03847698      -2.11141863       0.00000000
Si       1.92770973      -0.69333824      -1.30461976       0.00000000
Si      -0.22973787       2.22237954       1.03144430       0.00000000
Si      -2.54904291       1.32427926       1.12350305       0.00000000
Si       2.03936139       2.67729408       0.01921196       0.00000000
Si       0.51184809      -1.39701248      -3.07698350       0.00000000
Si       2.57507433       1.50416973      -1.96807050       0.00000000
Si      -3.10759443      -1.36036487      -1.88228927       0.00000000
Si       3.31888178      -0.61339832       1.95289409       0.00000000
