10
Lattice="16.28999089631971 0.0 0.0 0.0 16.28999089631971 0.0 0.0 0.0 34.49183129400761" Properties=species:S:1:pos:R:3:initial_magmoms:R:1 pbc="T T T"
Si      -1.36414089       0.92553264       1.60425046       0.00000000
Si       2.30586579       0.51308613      -0.06491366       0.00000000
Si      -0.56842326       0.18134028      -2.29322518       0.00000000
Si       1.15885431      -1.39028634      -2.93949898       0.00000000
Si      -1.73249037       2.95355619       0.51548071       0.00000000
Si       3.09104446      -1.27538645      -1.41485571       0.00000000
Si      -0.76637934      -3.52692251      -0.47288327       0.00000000
Si       2.53040130       2.69495244      -1.00950748       0.00000000
Si      -2.77542504      -2.56848407      -1.23273874       0.00000000
Si      -2.56547952      -0.89147351      -2.91356111       0.00000000
