10
Lattice="16.28999089631971 0.0 0.0 0.0 16.28999089631971 0.0 0.0 0.0 34.49183129400761" Properties=species:S:1:pos:R:3:initial_magmoms:R:1 pbc="T T T"
Si       1.35569615      -1.35536058       1.35915137       0.00000000
Si       1.35704822       1.35690813      -1.35680593       0.00000000
Si      -1.35643552       1.35470898       1.36153131       0.00000000
Si      -1.35800615      -1.35840681      -1.35677143       0.00000000
Si       2.71410296      -0.00029322      -2.71392228       0.00000000
Si      -0.00066137       2.71438641      -2.71416372       0.00000000
Si      -0.01824317      -2.71367617       2.71537094       0.00000000
Si      -2.71365077      -2.71549739       0.00000000       0.00000000
Si       2.71480343      -2.71443039       0.00055187       0.00000000
Si      -0.00022969      -2.71547784      -2.71447415       0.00000000
