10
Lattice="16.28999089631971 0.0 0.0 0.0 16.28999089631971 0.0 0.0 0.0 34.49183129400761" Properties=species:S:1:pos:R:3:initial_magmoms:R:1 pbc="T T T"
Si       1.43407386      -1.22952033       1.35546074       0.00000000
Si       1.35493704       1.33167492      -1.36135885       0.00000000
Si      -1.35897696      -1.38287439      -1.35925485       0.00000000
Si      -1.34469063       1.32486570       1.49977465       0.00000000
Si      -1.86072525      -0.58772691       3.03724889       0.00000000
Si      -0.08307900      -2.33447103       2.77269639       0.00000000
Si      -2.71717200       2.67170661       0.00786414       0.00000000
Si       0.00151497       2.69052156      -2.72026878       0.00000000
Si       2.71914309       2.69350263       0.01814271       0.00000000
Si      -2.71526607      -0.02474451      -2.71823376       0.00000000
