10
Lattice="16.28999089631971 0.0 0.0 0.0 16.28999089631971 0.0 0.0 0.0 34.49183129400761" Properties=species:S:1:pos:R:3:initial_magmoms:R:1 pbc="T T T"
Si      -1.43407386       1.22952033      -1.35546074       0.00000000
Si      -1.51715286      -1.10495070       1.41723565       0.00000000
Si       1.45072224       1.21852458       1.42575514       0.00000000
Si       1.28417328      -1.50570099      -1.34542362       0.00000000
Si       0.29994777      -1.11628854       3.09195296       0.00000000
Si      -0.07913682       2.56119525      -2.71681959       0.00000000
Si      -3.29479911       0.64179342       1.68178814       0.00000000
Si      -2.77876449       2.55438603       0.14431390       0.00000000
Si       2.64101386      -0.15657948      -2.71371533       0.00000000
Si      -2.63163321      -2.73007368       0.06877675       0.00000000
