10
Lattice="16.28999089631971 0.0 0.0 0.0 16.28999089631971 0.0 0.0 0.0 34.49183129400761" Properties=species:S:1:pos:R:3:initial_magmoms:R:1 pbc="T T T"
Si       0.55967553       2.11554972      -0.75768248       0.00000000
Si       1.39797522      -0.62232687       1.81827239       0.00000000
Si       0.54592677      -1.06570809      -2.05968086       0.00000000
Si      -2.37627117      -0.07481997       0.47564262       0.00000000
Si      -2.35128231      -2.16497358       1.67492426       0.00000000
Si      -0.18055836      -3.25742170      -1.60297426       0.00000000
Si      -0.66525102      -3.52350908       0.70935940       0.00000000
Si       0.20628027       3.51924273       1.09346065       0.00000000
Si      -0.83904903       2.39015025      -2.71540543       0.00000000
Si       0.75061062      -2.81983484       2.48172314       0.00000000
