10
Lattice="16.28999089631971 0.0 0.0 0.0 16.28999089631971 0.0 0.0 0.0 34.49183129400761" Properties=species:S:1:pos:R:3:initial_magmoms:R:1 pbc="T T T"
Si       0.50652126      -0.02963151       2.39770099       0.00000000
Si      -1.02640032       2.04012702      -0.91079181       0.00000000
Si       0.22973787      -2.22237954      -1.03144430       0.00000000
Si      -2.31930504      -0.89810028       0.09205875       0.00000000
Si       2.26909926       0.45491454      -1.01223234       0.00000000
Si      -1.48652766      -3.15433533       0.34188322       0.00000000
Si       3.57268975      -0.50684706       0.66082937       0.00000000
Si       0.79402347       3.36041523      -1.50036101       0.00000000
Si       2.76785019       0.73161648       2.52469999       0.00000000
Si      -2.04289632       1.46842947      -2.98513170       0.00000000
