10
Lattice="16.28999089631971 0.0 0.0 0.0 16.28999089631971 0.0 0.0 0.0 34.49183129400761" Properties=species:S:1:pos:R:3:initial_magmoms:R:1 pbc="T T T"
Si      -1.35472527       1.35583299      -1.35766822       0.00000000
Si       1.36028083      -1.36089918      -1.35749576       0.00000000
Si       1.35212606       1.35570267       1.37170641       0.00000000
Si      -1.35106002      -1.35523026       1.37950156       0.00000000
Si       0.12781787      -2.63878452       2.76683278       0.00000000
Si      -2.71334385       2.71243161      -0.00031043       0.00000000
Si      -2.71210581      -0.00244350      -2.71530195       0.00000000
Si       0.00325512       2.71264338      -2.71526746       0.00000000
Si       2.71455650       2.71379997       0.00324223       0.00000000
Si      -2.71526607      -2.71705797       0.00000000       0.00000000
