10
Lattice="16.28999089631971 0.0 0.0 0.0 16.28999089631971 0.0 0.0 0.0 34.49183129400761" Properties=species:S:1:pos:R:3:initial_magmoms:R:1 pbc="T T T"
Si      -2.35400274       0.06980265       0.10551057       0.00000000
Si       0.73987374       2.07096399      -0.85408720       0.00000000
Si       0.66142287      -1.87528851      -1.33407580       0.00000000
Si       0.66811806      -0.25306515       2.32412988       0.00000000
Si      -0.26020017       1.98511569      -2.99647952       0.00000000
Si       3.07401164       1.72418247      -1.00257462       0.00000000
Si      -2.85630489       2.35893861       0.51779166       0.00000000
Si       2.98234781      -1.58195448      -1.67447587       0.00000000
Si       3.00842810      -0.54310860       2.32475073       0.00000000
Si      -3.09742947      -1.44871857       1.81899672       0.00000000
