10
Lattice="16.28999089631971 0.0 0.0 0.0 16.28999089631971 0.0 0.0 0.0 34.49183129400761" Properties=species:S:1:pos:R:3:initial_magmoms:R:1 pbc="T T T"
Si      -1.64763576      -1.04602977      -1.34680329       0.00000000
Si       1.08936117       1.75446513      -1.20066132       0.00000000
Si      -0.76160637      -0.19008801       2.31154035       0.00000000
Si       1.79378964      -1.77852591       0.07550266       0.00000000
Si       1.24071156      -2.11600584       2.39839083       0.00000000
Si      -0.36484713       2.22390495       2.68719109       0.00000000
Si      -0.23372892      -2.34554823      -2.62220845       0.00000000
Si       2.47425552       0.38261952      -2.59289037       0.00000000
Si      -3.02989113      -1.15838190       1.76005015       0.00000000
Si      -2.52001413      -2.72430702      -0.02152291       0.00000000
