10
Lattice="16.28999089631971 0.0 0.0 0.0 16.28999089631971 0.0 0.0 0.0 34.49183129400761" Properties=species:S:1:pos:R:3:initial_magmoms:R:1 pbc="T T T"
Si      -1.41571503      -1.11135267       1.48362698       0.00000000
Si      -1.60404372       1.22634378      -1.35956527       0.00000000
Si       1.29707496       1.60425549       1.30514890       0.00000000
Si       0.36888705      -1.88998209      -1.84590037       0.00000000
Si      -2.76117129      -2.26883862      -0.05756690       0.00000000
Si       0.03461625      -2.38466052       2.84676906       0.00000000
Si      -3.11617926      -0.71472375      -1.93461341       0.00000000
Si      -0.94716576      -0.92098773      -3.51220167       0.00000000
Si      -2.50115031       2.95415892       0.10313063       0.00000000
Si      -2.68354944       0.34197597       2.87409350       0.00000000
