10
Lattice="16.28999089631971 0.0 0.0 0.0 16.28999089631971 0.0 0.0 0.0 34.49183129400761" Properties=species:S:1:pos:R:3:initial_magmoms:R:1 pbc="T T T"
Si      -0.38662686      -1.00294272       2.08641204       0.00000000
Si       1.86152346      -1.20653514      -0.80072831       0.00000000
Si      -1.82017944      -0.66674970      -1.42127119       0.00000000
Si       0.55737864       2.20035546       0.91537922       0.00000000
Si       1.94131188      -1.35842310       2.58271528       0.00000000
Si      -1.46960235       2.51074512       2.09876012       0.00000000
Si       1.05441912      -3.51583812      -0.46467421       0.00000000
Si       3.50230113      -0.92015694       0.86091659       0.00000000
Si      -3.63480073       0.71851932      -0.73060638       0.00000000
Si      -1.72879254       0.48461121       3.35188355       0.00000000
