10
Lattice="16.28999089631971 0.0 0.0 0.0 16.28999089631971 0.0 0.0 0.0 34.49183129400761" Properties=species:S:1:pos:R:3:initial_magmoms:R:1 pbc="T T T"
Si       1.35692116      -1.35736425       1.36111741       0.00000000
Si      -1.35893594       1.35843939       1.36049655       0.00000000
Si       1.35916918       1.37536470      -1.36835380       0.00000000
Si      -1.35426330      -1.37068947      -1.38770028       0.00000000
Si       2.71128805       2.71437012       0.00037941       0.00000000
Si      -2.71384299       2.71510317       0.00124171       0.00000000
Si       2.71552345      -2.71378368      -0.00206951       0.00000000
Si      -2.71446201      -2.71510317       0.00586361       0.00000000
Si       0.00000977      -2.71428867       2.71840622       0.00000000
Si       2.71472524       0.00053757       2.71816478       0.00000000
