10
Lattice="16.28999089631971 0.0 0.0 0.0 16.28999089631971 0.0 0.0 0.0 34.49183129400761" Properties=species:S:1:pos:R:3:initial_magmoms:R:1 pbc="T T T"
Si      -2.17340528       0.94822461       0.10630388       0.00000000
Si       0.33379839      -0.49317975       2.35913910       0.00000000
Si       1.45658664       1.99368423      -0.01393471       0.00000000
Si      -1.74636945       0.25462899      -2.03260475       0.00000000
Si       3.01573512       0.23324022       0.05380729       0.00000000
Si       1.09186983      -2.93856939      -1.68375418       0.00000000
Si      -0.63464211      -2.62449819       2.56167525       0.00000000
Si       2.71520091      -0.72627336       2.50383242       0.00000000
Si       0.50297004       3.28847859      -1.87984035       0.00000000
Si      -0.64055538       1.78271244      -3.36005812       0.00000000
