10
Lattice="16.28999089631971 0.0 0.0 0.0 16.28999089631971 0.0 0.0 0.0 34.2284985734139" Properties=species:S:1:pos:R:3:initial_magmoms:R:1 pbc="T T T"
Si      -1.35663772      -1.34943464       1.39508935       0.00000000
Si       1.36277253       1.36317032       1.39283027       0.00000000
Si       1.40408397      -1.44316730      -1.44500479       0.00000000
Si      -1.38999475       1.36832610      -1.54610899       0.00000000
Si      -2.68794823       2.71370580       0.03266770       0.00000000
Si      -2.70448167      -2.71267958       0.01047050       0.00000000
Si       2.70961344       2.72147613       0.00603449       0.00000000
Si       2.71070487      -2.72435951       0.04129328       0.00000000
Si       0.00369783      -2.71145783       2.75563870       0.00000000
Si      -2.71217452       0.00563423       2.75598098       0.00000000
