10
Lattice="16.28999089631971 0.0 0.0 0.0 16.28999089631971 0.0 0.0 0.0 34.2284985734139" Properties=species:S:1:pos:R:3:initial_magmoms:R:1 pbc="T T T"
Si      -1.34684091      -1.35830581       1.38679578       0.00000000
Si       1.36489023       1.35671265       1.38908909       0.00000000
Si       1.42415325      -1.41876452      -1.41267938       0.00000000
Si      -1.38486177       1.42816059      -1.46476150       0.00000000
Si       0.16614171       2.84579784      -2.53037843       0.00000000
Si      -2.70961344      -2.72147613      -0.00603449       0.00000000
Si      -2.71805166       2.71536381       0.02121484       0.00000000
Si       2.74369212       2.69663031       0.03296891       0.00000000
Si      -2.70736542      -0.00022806       2.74974112       0.00000000
Si       2.74082508      -2.71988003       0.02910793       0.00000000
