10
Lattice="16.28999089631971 0.0 0.0 0.0 16.28999089631971 0.0 0.0 0.0 34.2284985734139" Properties=species:S:1:pos:R:3:initial_magmoms:R:1 pbc="T T T"
Si       1.35729909       1.35438318       1.35760570       0.00000000
Si       1.35708732      -1.35742126      -1.35719496       0.00000000
Si      -1.35786924       1.35752715      -1.35743456       0.00000000
Si      -1.35949824      -1.35814128       1.35702381       0.00000000
Si      -2.71511946       0.00125433       2.71209660       0.00000000
Si      -0.00009774       2.71450044      -2.71452682       0.00000000
Si       2.71467963       2.71453302      -0.00006846       0.00000000
Si       2.71707426       0.00048870       2.71219929       0.00000000
Si      -2.71533123       2.71461447       0.00068457       0.00000000
Si       2.71507059      -2.71538876      -0.00010269       0.00000000
