10
Lattice="16.28999089631971 0.0 0.0 0.0 16.28999089631971 0.0 0.0 0.0 34.2284985734139" Properties=species:S:1:pos:R:3:initial_magmoms:R:1 pbc="T T T"
Si       1.29751479      -0.22039067      -1.94667849       0.00000000
Si      -0.18733500      -2.33189788       0.25890451       0.00000000
Si      -1.96335714       1.24301497       0.41543152       0.00000000
Si       1.40383962       0.64916302       1.98853996       0.00000000
Si      -0.58031496      -0.96387997      -3.08878144       0.00000000
Si      -2.07358505      -2.04450970      -1.66689458       0.00000000
Si       3.10658445      -0.83763636       1.38238714       0.00000000
Si      -1.03708656      -2.19465463       2.54143321       0.00000000
Si      -0.38400417      -0.16062429       3.56318869       0.00000000
Si      -1.85479243       1.53208102       2.85862888       0.00000000
