10
Lattice="16.28999089631971 0.0 0.0 0.0 16.28999089631971 0.0 0.0 0.0 34.2284985734139" Properties=species:S:1:pos:R:3:initial_magmoms:R:1 pbc="T T T"
Si      -0.00399105      -1.86451172      -1.42161303       0.00000000
Si       0.77550174       1.63717758      -1.52310058       0.00000000
Si      -1.92309966       1.00712925       1.00210831       0.00000000
Si       1.76002047      -0.57085861       1.51598105       0.00000000
Si       2.27592477      -2.24926523      -1.66429322       0.00000000
Si      -1.77098364      -0.14432940      -3.15484248       0.00000000
Si      -1.06877061       1.61108100       3.11979247       0.00000000
Si      -3.57036075      -0.67923436       0.83462818       0.00000000
Si       0.11223810       3.70173960      -0.55806175       0.00000000
Si       2.90289429       1.33747416       2.02341882       0.00000000
