10
Lattice="16.28999089631971 0.0 0.0 0.0 16.28999089631971 0.0 0.0 0.0 34.2284985734139" Properties=species:S:1:pos:R:3:initial_magmoms:R:1 pbc="T T T"
Si      -1.21948569      -1.29808820       1.58326203       0.00000000
Si      -1.45634229       1.54460151      -1.14768220       0.00000000
Si       1.36927224       1.34094393       1.57901085       0.00000000
Si       0.74085291      -1.11049256      -2.09967996       0.00000000
Si      -0.10909413       2.42434296      -2.86855515       0.00000000
Si      -2.06912322      -3.14541071       0.36839405       0.00000000
Si       2.93566977       2.52928314       0.32348288       0.00000000
Si      -2.47749723       2.96647416       0.46556299       0.00000000
Si       0.09718614      -2.59920371       3.02504935       0.00000000
Si      -2.64363894       0.12067632       2.99594141       0.00000000
