10
Lattice="16.28999089631971 0.0 0.0 0.0 16.28999089631971 0.0 0.0 0.0 34.2284985734139" Properties=species:S:1:pos:R:3:initial_magmoms:R:1 pbc="T T T"
Si      -1.35615879       1.35676152       1.36065204       0.00000000
Si       1.37880189       1.33991766      -1.35612018       0.00000000
Si       1.36032903      -1.35754344       1.36048089       0.00000000
Si      -1.36489023      -1.35671265      -1.38908909       0.00000000
Si      -2.71280628       2.71282257       0.00147183       0.00000000
Si      -2.71173114      -2.71501846      -0.00229331       0.00000000
Si      -2.71393029      -0.00021177       2.71774431       0.00000000
Si       2.71811682       2.71375110       0.00417588       0.00000000
Si       0.00112401       2.71485882       2.71784699       0.00000000
Si       0.00102627      -2.71516019       2.71798391       0.00000000
