10
Lattice="16.28999089631971 0.0 0.0 0.0 16.28999089631971 0.0 0.0 0.0 34.2284985734139" Properties=species:S:1:pos:R:3:initial_magmoms:R:1 pbc="T T T"
Si       1.35664749      -1.35606105       1.35918021       0.00000000
Si      -1.35723393       1.36054080       1.35870101       0.00000000
Si       1.36767582       1.36293543      -1.36022760       0.00000000
Si      -1.37013561      -1.35417141      -1.36934608       0.00000000
Si       2.71280628      -2.71282257      -0.00147183       0.00000000
Si       2.71239903       2.71373481       0.00075303       0.00000000
Si      -0.00112401      -2.71303434       2.71627248       0.00000000
Si      -2.71388305      -2.71595025       0.00222485       0.00000000
Si       2.71393029       0.00203625       2.71637516       0.00000000
Si      -2.71575803       2.71534752      -0.00136914       0.00000000
