10
Lattice="16.28999089631971 0.0 0.0 0.0 16.28999089631971 0.0 0.0 0.0 34.2284985734139" Properties=species:S:1:pos:R:3:initial_magmoms:R:1 pbc="T T T"
Si      -1.47078826       1.69270530      -0.70455981       0.00000000
Si      -0.65308239      -2.03403034      -1.02175548       0.00000000
Si      -0.01153332       0.27488235       2.41482192       0.00000000
Si       1.78784379       0.80978730      -1.57464873       0.00000000
Si       0.29090682      -3.45231919       0.56220340       0.00000000
Si       0.38400417       0.16062429      -3.56318869       0.00000000
Si       1.63572777       1.96124595       2.58230206       0.00000000
Si      -0.17062146       3.63444072      -0.41738254       0.00000000
Si       3.55483638      -0.91039501       0.15858072       0.00000000
Si      -1.57935297       1.40363925      -3.14775717       0.00000000
