10
Lattice="16.28999089631971 0.0 0.0 0.0 16.28999089631971 0.0 0.0 0.0 34.2284985734139" Properties=species:S:1:pos:R:3:initial_magmoms:R:1 pbc="T T T"
Si       1.47078826      -1.69270530       0.70455981       0.00000000
Si       1.30016680       1.94173542       0.28717726       0.00000000
Si      -2.05426089       0.49671468       1.15637624       0.00000000
Si      -0.10856471      -0.28906605      -2.44319737       0.00000000
Si      -0.58940967       3.28458528      -0.02717744       0.00000000
Si      -2.05414686      -1.75950571      -2.03478269       0.00000000
Si       3.25863205      -0.88291800      -0.87008892       0.00000000
Si       1.45925494      -1.41782296       3.11938173       0.00000000
Si       1.85479243      -1.53208102      -2.85862888       0.00000000
Si      -2.43688041      -1.37692691       2.56255221       0.00000000
