10
Lattice="16.28999089631971 0.0 0.0 0.0 16.28999089631971 0.0 0.0 0.0 34.2284985734139" Properties=species:S:1:pos:R:3:initial_magmoms:R:1 pbc="T T T"
Si      -1.44446688       1.12816395      -1.42582313       0.00000000
Si       1.02480390       1.47843153       1.59679941       0.00000000
Si      -1.59094656      -1.06710903       1.51934028       0.00000000
Si       0.80897769      -1.84627602      -1.57043862       0.00000000
Si       1.68195879       1.94245218      -1.77228419       0.00000000
Si      -2.30928669      -0.62493327      -2.75142517       0.00000000
Si       2.52949491      -2.68713324      -0.15635587       0.00000000
Si       1.79584218       3.24568476       0.32423994       0.00000000
Si      -1.09403640      -3.43381797      -1.02812199       0.00000000
Si       2.43543645       0.18977850       2.87380379       0.00000000
