10
Lattice="16.28999089631971 0.0 0.0 0.0 16.28999089631971 0.0 0.0 0.0 34.2284985734139" Properties=species:S:1:pos:R:3:initial_magmoms:R:1 pbc="T T T"
Si       0.69787989       2.06190286       0.83733223       0.00000000
Si       0.52215966       0.83816937      -2.31932436       0.00000000
Si       0.80607807      -1.36886499       2.04368211       0.00000000
Si      -2.59603956       0.56764134      -0.28615041       0.00000000
Si      -1.19120625      -2.64767886      -2.05706546       0.00000000
Si      -0.38804409      -0.87801471      -3.56969211       0.00000000
Si       0.76212765       1.82851992       3.17671450       0.00000000
Si      -0.25018182      -0.23224653       3.78875462       0.00000000
Si      -2.40870456       2.89953922      -0.54505492       0.00000000
Si      -1.11118977       2.67914855      -2.49173340       0.00000000
