10
Lattice="16.28999089631971 0.0 0.0 0.0 16.28999089631971 0.0 0.0 0.0 34.2284985734139" Properties=species:S:1:pos:R:3:initial_magmoms:R:1 pbc="T T T"
Si      -0.33503643      -2.17548063       0.84838804       0.00000000
Si       2.09622978       0.98787447      -0.52431243       0.00000000
Si      -1.36887802      -0.42411015      -1.96588069       0.00000000
Si      -0.62279113       1.29707496       1.98446677       0.00000000
Si      -2.69600219      -1.59402537       0.86160025       0.00000000
Si      -3.54889772      -0.34689555      -1.08531784       0.00000000
Si       3.00517920       1.79401770       1.46323490       0.00000000
Si       3.34085094      -0.58544631      -1.74031475       0.00000000
Si      -1.13443723       1.47750300      -3.33738316       0.00000000
Si      -1.25983928      -0.25334208       3.69962356       0.00000000
