10
Lattice="16.28999089631971 0.0 0.0 0.0 16.28999089631971 0.0 0.0 0.0 34.2284985734139" Properties=species:S:1:pos:R:3:initial_magmoms:R:1 pbc="T T T"
Si       1.75601313       1.08727442      -1.08583846       0.00000000
Si      -1.31186628       1.39684958       1.42781181       0.00000000
Si       1.40032098      -1.30868226       1.43663250       0.00000000
Si      -1.00551654      -1.76467194      -1.29513664       0.00000000
Si       0.43163613       2.02341185      -2.86995651       0.00000000
Si       3.43673388      -0.75349232      -1.26515245       0.00000000
Si       2.63446767      -2.69926182       0.00830384       0.00000000
Si      -2.72826549       2.62793375      -0.01117561       0.00000000
Si       0.69129873      -3.51982170      -1.31885700       0.00000000
Si      -2.65662207       0.04502067       2.79878032       0.00000000
