10
Lattice="16.28999089631971 0.0 0.0 0.0 16.28999089631971 0.0 0.0 0.0 34.2284985734139" Properties=species:S:1:pos:R:3:initial_magmoms:R:1 pbc="T T T"
Si      -2.17467006      -0.35161965      -0.77975986       0.00000000
Si       1.02620810      -2.10048636      -0.46461790       0.00000000
Si       0.63704814       1.55041704      -1.71515679       0.00000000
Si       0.73577369       0.81028089       2.16235238       0.00000000
Si      -1.43616291      -1.34068329      -2.83802332       0.00000000
Si       0.92480285      -1.92213855      -2.85123552       0.00000000
Si       2.65470311       2.13470676       1.12344841       0.00000000
Si      -1.40192133       2.73333168      -2.07869788       0.00000000
Si      -3.20739090       1.78220745      -0.84185039       0.00000000
Si      -3.34230468      -1.81051947       0.62271942       0.00000000
