10
Lattice="16.28999089631971 0.0 0.0 0.0 16.28999089631971 0.0 0.0 0.0 34.2284985734139" Properties=species:S:1:pos:R:3:initial_magmoms:R:1 pbc="T T T"
Si       1.35519768      -1.35536058       1.35685267       0.00000000
Si      -1.33931493      -1.37383344      -1.36029606       0.00000000
Si      -1.35997065       1.35759231       1.35688690       0.00000000
Si       1.33579629       1.36402686      -1.38082632       0.00000000
Si      -2.50955595       0.13268205      -2.67172749       0.00000000
Si       2.66514174      -0.02041137      -2.73041913       0.00000000
Si       2.71337643       0.00091224       2.71401340       0.00000000
Si      -0.00172674      -2.71386513       2.71373957       0.00000000
Si       2.71316466       2.71521720      -0.00397051       0.00000000
Si      -0.00149868       2.71549413       2.71363688       0.00000000
