10
Lattice="16.28999089631971 0.0 0.0 0.0 16.28999089631971 0.0 0.0 0.0 34.2284985734139" Properties=species:S:1:pos:R:3:initial_magmoms:R:1 pbc="T T T"
Si      -1.35606105      -1.35742941      -1.35743456       0.00000000
Si      -1.35777150       1.35690813       1.35719496       0.00000000
Si       1.35692442       1.35850455      -1.35688690       0.00000000
Si       1.35734796      -1.35755973       1.35757147       0.00000000
Si       0.00172674       2.71386513      -2.71373957       0.00000000
Si      -0.00057015       2.71419093       2.71438991       0.00000000
Si       2.71402803      -0.00006516       2.71514294       0.00000000
Si      -0.00280188      -2.71461773       2.71476642       0.00000000
Si       2.71510317       2.71477737       0.00027383       0.00000000
Si      -2.71515204      -0.00324171       2.71486911       0.00000000
