10
Lattice="16.28999089631971 0.0 0.0 0.0 16.28999089631971 0.0 0.0 0.0 34.2284985734139" Properties=species:S:1:pos:R:3:initial_magmoms:R:1 pbc="T T T"
Si       1.55100348       1.41763725      -1.06561693       0.00000000
Si      -1.33318989       1.28720322       1.48597633       0.00000000
Si      -1.31380479      -1.33237539      -1.59683022       0.00000000
Si       1.38486177      -1.42816059       1.46476150       0.00000000
Si       2.57215842      -0.00423540      -2.67886212       0.00000000
Si      -2.72433146       2.61254133       0.07511106       0.00000000
Si      -2.53780281       0.27894996      -2.92181614       0.00000000
Si      -2.71474642      -2.78131062      -0.08738198       0.00000000
Si       0.03694572       2.64137463       2.85532241       0.00000000
Si      -2.67693733      -0.07457562       2.85754726       0.00000000
