10
Lattice="16.28999089631971 0.0 0.0 0.0 16.28999089631971 0.0 0.0 0.0 34.2284985734139" Properties=species:S:1:pos:R:3:initial_magmoms:R:1 pbc="T T T"
Si       0.18280638      -1.34868168       1.92723669       0.00000000
Si       0.77524110      -1.51661529      -1.67623897       0.00000000
Si       1.35412254       1.94399973      -0.40547102       0.00000000
Si      -2.22324291       1.00043406       0.44510764       0.00000000
Si       1.83420513       0.14081076      -3.02768353       0.00000000
Si       1.70934228       2.52755640       1.89581491       0.00000000
Si      -0.44209431      -3.57368391      -0.26338844       0.00000000
Si      -1.93065822      -0.96648570       3.08802841       0.00000000
Si      -2.85487137       1.90050543      -1.68048331       0.00000000
Si       3.31933185       1.21210632      -1.59385093       0.00000000
