10
Lattice="16.28999089631971 0.0 0.0 0.0 16.28999089631971 0.0 0.0 0.0 34.2284985734139" Properties=species:S:1:pos:R:3:initial_magmoms:R:1 pbc="T T T"
Si      -2.26488015      -0.32259087       0.43364109       0.00000000
Si       1.41069771      -1.54473183      -1.03476232       0.00000000
Si       0.21377367       2.18681847      -0.79536807       0.00000000
Si       0.79219899       0.02503773       2.21301058       0.00000000
Si      -2.79914328       1.93937337       0.91540748       0.00000000
Si      -0.03264516      -3.33936855      -1.63684195       0.00000000
Si      -3.26847447      -0.78395625      -1.60076509       0.00000000
Si      -0.98494227       3.51813501       0.76415166       0.00000000
Si       2.19393720       3.00951234       0.34012878       0.00000000
Si      -0.85416615      -1.01538828       3.49969479       0.00000000
