10
Lattice="16.28999089631971 0.0 0.0 0.0 16.28999089631971 0.0 0.0 0.0 34.2284985734139" Properties=species:S:1:pos:R:3:initial_magmoms:R:1 pbc="T T T"
Si      -1.72051722       0.84085722      -1.41408275       0.00000000
Si      -1.28345652      -1.03848750       1.72613871       0.00000000
Si       1.27894419       1.53526734       1.36631484       0.00000000
Si       1.31220837      -1.71137853      -1.17752947       0.00000000
Si      -2.69076591      -2.39583546       0.47422280       0.00000000
Si      -2.52949491       2.68713324       0.15635587       0.00000000
Si      -3.62353131      -0.74668473      -0.87176612       0.00000000
Si       2.95857351      -0.67095252      -2.46421367       0.00000000
Si       3.16262205       2.33583939       0.01136387       0.00000000
Si       2.72240109      -2.83302648       0.33214269       0.00000000
