10
Lattice="16.28999089631971 0.0 0.0 0.0 16.28999089631971 0.0 0.0 0.0 34.2284985734139" Properties=species:S:1:pos:R:3:initial_magmoms:R:1 pbc="T T T"
Si      -0.19051155       2.25362376       0.44815398       0.00000000
Si       2.38371570       0.14548599       0.11004468       0.00000000
Si      -0.35521974      -0.58355667      -2.30128593       0.00000000
Si      -1.19899287      -0.74101581       2.08872684       0.00000000
Si       1.87738992       2.01526848       1.61230010       0.00000000
Si      -0.28831671      -2.89994580       1.76694454       0.00000000
Si      -1.70934228      -2.52755640      -1.89581491       0.00000000
Si      -1.30489416       1.49174046      -3.26464756       0.00000000
Si       3.13887123       1.99669788      -1.21921980       0.00000000
Si      -2.09756556       2.91695256       1.60453022       0.00000000
