10
Lattice="16.28999089631971 0.0 0.0 0.0 16.28999089631971 0.0 0.0 0.0 34.2284985734139" Properties=species:S:1:pos:R:3:initial_magmoms:R:1 pbc="T T T"
Si       1.79372448      -0.89290377      -1.21086777       0.00000000
Si       1.29681432       1.47380517       1.33659449       0.00000000
Si      -1.31457042       1.15331571      -1.63297385       0.00000000
Si      -1.54884505      -1.34715042       1.27584914       0.00000000
Si       0.57847419       1.91598093      -2.93417095       0.00000000
Si       0.55661301      -2.35631592      -2.75998203       0.00000000
Si       2.72648988      -2.54205450       0.13512115       0.00000000
Si       2.58010794       0.04461831       2.69583289       0.00000000
Si      -0.15770349      -2.67248853       2.68671441       0.00000000
Si      -2.61714163       2.76569991      -0.16850672       0.00000000
