10
Lattice="16.28999089631971 0.0 0.0 0.0 16.28999089631971 0.0 0.0 0.0 34.2284985734139" Properties=species:S:1:pos:R:3:initial_magmoms:R:1 pbc="T T T"
Si       0.17897823       1.86333165       1.42445399       0.00000000
Si      -1.36700793      -1.37790594       1.53244497       0.00000000
Si       1.96237485      -1.63483182      -0.13492882       0.00000000
Si       0.67215798       0.17093097      -2.46233111       0.00000000
Si       0.70089354      -1.61626122       2.69659108       0.00000000
Si       1.01138094       0.64334097       3.33221466       0.00000000
Si       2.46345525      -1.49696955      -2.46941641       0.00000000
Si      -1.93947111       2.97278232       1.50228964       0.00000000
Si       1.20721932      -3.48604371       1.19433567       0.00000000
Si      -1.18556991      -0.73932165      -3.67614280       0.00000000
