10
Lattice="16.28999089631971 0.0 0.0 0.0 16.28999089631971 0.0 0.0 0.0 34.2284985734139" Properties=species:S:1:pos:R:3:initial_magmoms:R:1 pbc="T T T"
Si       0.36217557       2.18374196      -0.86303785       0.00000000
Si      -0.45721143      -1.50102576      -1.80534894       0.00000000
Si      -1.65532464       0.60558075       1.72645220       0.00000000
Si       0.44123094      -1.78624737       1.73381134       0.00000000
Si       2.70875007      -1.28519955       1.30222396       0.00000000
Si      -3.29675391      -0.91326627       0.80454131       0.00000000
Si      -2.60641629      -2.18571075      -1.06087868       0.00000000
Si       1.93303656       2.94290972       0.76309057       0.00000000
Si       0.93336813       1.54947941      -3.12896572       0.00000000
Si      -0.69084261      -0.08562024      -3.67549246       0.00000000
