10
Lattice="16.28999089631971 0.0 0.0 0.0 16.28999089631971 0.0 0.0 0.0 34.2284985734139" Properties=species:S:1:pos:R:3:initial_magmoms:R:1 pbc="T T T"
Si      -0.46221246      -0.60805098      -2.28899790       0.00000000
Si       2.01247216       0.80800843       1.11876393       0.00000000
Si      -0.80226621      -1.94576949       1.27345629       0.00000000
Si      -1.68072075       1.84076674       0.17931400       0.00000000
Si      -2.03641290      -0.55518993       2.70178495       0.00000000
Si       0.71451868       2.15338813       2.69754061       0.00000000
Si      -3.43673388       0.75349232       1.26515245       0.00000000
Si      -0.57772485       3.53919472       1.33163792       0.00000000
Si      -2.74543515      -2.76632937      -0.05370455       0.00000000
Si      -1.88866260       1.24746865      -3.25530318       0.00000000
