10
Lattice="16.28999089631971 0.0 0.0 0.0 16.28999089631971 0.0 0.0 0.0 34.2284985734139" Properties=species:S:1:pos:R:3:initial_magmoms:R:1 pbc="T T T"
Si       1.35398799      -1.35602799       1.35863255       0.00000000
Si      -1.35769005      -1.35706211      -1.35685267       0.00000000
Si       1.35772375       1.35772752      -1.35726341       0.00000000
Si      -1.35736425       1.35701076       1.36352723       0.00000000
Si       2.71286559       2.71344648      -0.00044497       0.00000000
Si      -0.00079821      -2.71386743      -2.71428723       0.00000000
Si       2.71438056       0.00093993      -2.71432145       0.00000000
Si       2.71448482      -2.71474709       0.00041074       0.00000000
Si      -2.71528236       0.00006027      -2.71456105       0.00000000
Si      -0.00032580       2.71562934      -2.71483488       0.00000000
