10
Lattice="16.28999089631971 0.0 0.0 0.0 16.28999089631971 0.0 0.0 0.0 34.2284985734139" Properties=species:S:1:pos:R:3:initial_magmoms:R:1 pbc="T T T"
Si      -1.35742941      -1.35749457      -1.35774261       0.00000000
Si      -1.35848826       1.35905841       1.35514124       0.00000000
Si       1.35753658       1.35744570      -1.35794798       0.00000000
Si       1.36350558      -1.35977517       1.36044666       0.00000000
Si      -2.72103273       0.00403992       2.67899762       0.00000000
Si       2.71477804       2.71308321      -0.00075303       0.00000000
Si      -2.71445157      -0.00027693      -2.71497180       0.00000000
Si       0.00006516       2.71438641      -2.71507448       0.00000000
Si      -2.71810053       2.71192662      -0.00143760       0.00000000
Si      -2.71552671      -2.71511946      -0.00010269       0.00000000
