10
Lattice="16.28999089631971 0.0 0.0 0.0 16.28999089631971 0.0 0.0 0.0 34.2284985734139" Properties=species:S:1:pos:R:3:initial_magmoms:R:1 pbc="T T T"
Si       2.14563735      -0.85186926      -0.06352813       0.00000000
Si      -1.06749999      -1.40094000      -1.51926699       0.00000000
Si      -0.84375684      -0.95640219       1.95756316       0.00000000
Si       0.01332522       2.09813571      -1.09243737       0.00000000
Si      -2.71313208       0.05049900      -2.29673354       0.00000000
Si       1.56915054       1.48051665      -2.84195960       0.00000000
Si       2.95189461      -0.32715207       2.04652307       0.00000000
Si       0.68740542      -2.18970180      -2.83497698       0.00000000
Si       1.14642504      -1.27827630       3.28337056       0.00000000
Si      -2.18395143       2.30674545      -1.91111506       0.00000000
