10
Lattice="16.28999089631971 0.0 0.0 0.0 16.28999089631971 0.0 0.0 0.0 34.2284985734139" Properties=species:S:1:pos:R:3:initial_magmoms:R:1 pbc="T T T"
Si       1.31287626      -1.20557403      -1.67083086       0.00000000
Si       1.95892137       0.89435358       1.21008079       0.00000000
Si      -1.62990410      -1.22241789       1.53929067       0.00000000
Si      -1.38065081       1.49524281      -1.65210786       0.00000000
Si       2.65000833      -2.64139092      -0.33187971       0.00000000
Si       2.57077377       2.73782772      -0.29802770       0.00000000
Si      -2.77202762      -2.61728172      -0.11483668       0.00000000
Si       3.43507230      -1.10071530       1.36866151       0.00000000
Si      -0.02393001      -2.55730194      -3.05198578       0.00000000
Si      -3.09803939       2.59410105      -0.32503400       0.00000000
