10
Lattice="16.28999089631971 0.0 0.0 0.0 16.28999089631971 0.0 0.0 0.0 34.2284985734139" Properties=species:S:1:pos:R:3:initial_magmoms:R:1 pbc="T T T"
Si       1.00300788      -1.63370781       1.35716073       0.00000000
Si      -1.35423657      -1.35462753      -1.36876419       0.00000000
Si       1.36319607       1.35746199      -1.36345877       0.00000000
Si      -1.42343649       1.29394728       1.40333500       0.00000000
Si       2.44195475      -0.32540904       2.60591974       0.00000000
Si      -0.96804954      -2.16463149       2.87427132       0.00000000
Si      -2.59085934      -0.33221826       2.68580910       0.00000000
Si      -2.72303640       2.70024669      -0.00314902       0.00000000
Si      -2.71678104      -2.70964602      -0.04490782       0.00000000
Si       2.72852191       2.70070281       0.02118745       0.00000000
