10
Lattice="16.28999089631971 0.0 0.0 0.0 16.28999089631971 0.0 0.0 0.0 34.2284985734139" Properties=species:S:1:pos:R:3:initial_magmoms:R:1 pbc="T T T"
Si       1.34789553       1.36321514      -1.37102328       0.00000000
Si      -1.36311462      -1.35174420      -1.36770311       0.00000000
Si      -1.29684690       1.22769585       1.56061504       0.00000000
Si       1.36831359      -1.35889551       1.42489896       0.00000000
Si      -0.57194190      -2.30845590       2.61677018       0.00000000
Si       0.74762955       1.94742619       2.87259412       0.00000000
Si      -2.36323917      -0.64055538       2.62385548       0.00000000
Si       2.53497717       0.19404648       2.75840778       0.00000000
Si      -2.70757719       2.71226612       0.02358345       0.00000000
Si       2.70839236       0.00449604      -2.72924509       0.00000000
