10
Lattice="16.28999089631971 0.0 0.0 0.0 16.28999089631971 0.0 0.0 0.0 34.2284985734139" Properties=species:S:1:pos:R:3:initial_magmoms:R:1 pbc="T T T"
Si      -0.86253921      -1.82384469      -1.21843254       0.00000000
Si      -0.50108040      -0.13786227       2.33448759       0.00000000
Si      -1.79129727       1.66790052       0.00708530       0.00000000
Si       1.94025549       0.94956039      -1.19187121       0.00000000
Si      -2.16213912      -0.41754528      -2.62491657       0.00000000
Si       0.57194190       2.30845590      -2.61677018       0.00000000
Si       1.73538999       0.12901680       3.09867348       0.00000000
Si      -0.72490500       3.53615175      -1.05615514       0.00000000
Si      -2.46345525       1.49696955       2.46941641       0.00000000
Si      -3.64902516       0.75764790      -1.20672639       0.00000000
