10
Lattice="16.28999089631971 0.0 0.0 0.0 16.28999089631971 0.0 0.0 0.0 34.2284985734139" Properties=species:S:1:pos:R:3:initial_magmoms:R:1 pbc="T T T"
Si       2.23647039       0.26687907       0.76418589       0.00000000
Si       0.50108040       0.13786227      -2.33448759       0.00000000
Si      -0.75515553      -1.85121189       1.32926448       0.00000000
Si      -1.96237485       1.63483182       0.13492882       0.00000000
Si      -1.26148131       0.01857060       2.83151990       0.00000000
Si      -1.29021687       1.80576279      -2.32740229       0.00000000
Si      -3.32938278       0.25692588       1.66737378       0.00000000
Si       2.33474796       2.43582741       1.61319004       0.00000000
Si      -3.13887123      -1.99669788       1.21921980       0.00000000
Si      -0.36145881      -1.68598242      -3.55292014       0.00000000
