10
Lattice="16.28999089631971 0.0 0.0 0.0 16.28999089631971 0.0 0.0 0.0 34.2284985734139" Properties=species:S:1:pos:R:3:initial_magmoms:R:1 pbc="T T T"
Si      -0.31048740      -2.25960219      -0.63562357       0.00000000
Si       2.31733395       0.42311646       0.29905456       0.00000000
Si      -1.10317509       0.63231264       2.03231824       0.00000000
Si      -0.83240271       1.21999068      -1.90776066       0.00000000
Si      -1.01138094      -0.64334097      -3.33221466       0.00000000
Si       0.17032824       2.58280461       2.46880030       0.00000000
Si      -2.37838887      -2.02124691      -1.79976969       0.00000000
Si      -0.22618665      -3.34876788       1.49048080       0.00000000
Si       2.34090558       2.56185567       1.42808222       0.00000000
Si       3.28574187       0.15765462      -1.85395343       0.00000000
