10
Lattice="16.28999089631971 0.0 0.0 0.0 16.28999089631971 0.0 0.0 0.0 34.2284985734139" Properties=species:S:1:pos:R:3:initial_magmoms:R:1 pbc="T T T"
Si      -0.54646434       1.90915542      -1.20128406       0.00000000
Si      -2.14045876      -0.90570771       0.28827258       0.00000000
Si       1.09863018       0.69432867       1.95999338       0.00000000
Si       1.17226098      -1.50952914      -1.39813226       0.00000000
Si       1.09020825      -1.39533624       3.10134330       0.00000000
Si      -3.28486940       0.76385439       1.48835864       0.00000000
Si      -0.32584887      -1.89941400      -3.23202778       0.00000000
Si       3.22307424       1.56346533       1.23955154       0.00000000
Si      -1.28679597       1.52451594      -3.31427891       0.00000000
Si       1.48050036      -3.57260877      -0.23234318       0.00000000
