10
Lattice="16.28999089631971 0.0 0.0 0.0 16.28999089631971 0.0 0.0 0.0 34.2284985734139" Properties=species:S:1:pos:R:3:initial_magmoms:R:1 pbc="T T T"
Si       2.21754141      -0.01927107       0.77219536       0.00000000
Si      -0.81767655      -2.23482510      -0.08273033       0.00000000
Si      -1.09485090       0.70933176       2.03875320       0.00000000
Si       0.43378641       1.00468575      -2.91722811       0.00000000
Si       2.75323806      -1.65679074      -1.11074963       0.00000000
Si       2.43107073       2.28349962       1.18351946       0.00000000
Si      -3.37552909       0.48519765       1.36359569       0.00000000
Si       1.09595862      -3.57086574      -0.40037097       0.00000000
Si      -0.25412400      -0.58670064       3.85433646       0.00000000
Si       2.12160960      -0.75671937      -3.23634058       0.00000000
