10
Lattice="16.28999089631971 0.0 0.0 0.0 16.28999089631971 0.0 0.0 0.0 34.2284985734139" Properties=species:S:1:pos:R:3:initial_magmoms:R:1 pbc="T T T"
Si      -1.35443368       1.35381303      -1.35695536       0.00000000
Si      -1.35670939      -1.35799304       1.35743456       0.00000000
Si       1.35832536       1.35672894       1.35709227       0.00000000
Si       1.36052451      -1.35807775      -1.36294535       0.00000000
Si      -2.69019625      -0.00754227      -2.72310791       0.00000000
Si      -2.71294607       2.71415835       0.00010269       0.00000000
Si      -2.71336620      -0.00120546       2.71449260       0.00000000
Si       0.00086337       2.71381626       2.71521140       0.00000000
Si       2.71609686       2.71370223       0.00000000       0.00000000
Si      -2.71442254      -2.71561384       0.00020537       0.00000000
