10
Lattice="16.28999089631971 0.0 0.0 0.0 16.28999089631971 0.0 0.0 0.0 34.2284985734139" Properties=species:S:1:pos:R:3:initial_magmoms:R:1 pbc="T T T"
Si       1.91363517      -1.33604064      -0.31764064       0.00000000
Si      -1.48160808      -0.60551559       1.74106778       0.00000000
Si       0.81767655       2.23482510       0.08273033       0.00000000
Si      -2.15549117      -0.44380476      -1.16849314       0.00000000
Si      -3.21778846       0.55892619       0.76456240       0.00000000
Si      -0.27717435       2.94415686       2.12148353       0.00000000
Si       3.57091461       0.57803436      -1.02801930       0.00000000
Si       1.42403922      -3.47758920       0.55669261       0.00000000
Si       3.03521796       2.21555403       0.85492569       0.00000000
Si      -2.14368744       0.79651584      -3.14686723       0.00000000
