10
Lattice="16.28999089631971 0.0 0.0 0.0 16.28999089631971 0.0 0.0 0.0 34.2284985734139" Properties=species:S:1:pos:R:3:initial_magmoms:R:1 pbc="T T T"
Si      -1.30482900      -1.86900057      -0.08300416       0.00000000
Si      -0.84072690       1.29603240      -1.81558326       0.00000000
Si       2.25841302      -0.44437491       0.74046552       0.00000000
Si      -2.38533004       0.00663003       1.04968595       0.00000000
Si      -1.35239580       1.78675236       2.26883730       0.00000000
Si       0.47628702       0.87000003       3.42535045       0.00000000
Si       2.57491143       1.31689989       2.27828437       0.00000000
Si       3.38274882      -0.81712269      -1.37513070       0.00000000
Si      -2.04516063      -2.25364005      -2.19599901       0.00000000
Si      -0.62268525       3.52566099      -1.13416193       0.00000000
