10
Lattice="16.28999089631971 0.0 0.0 0.0 16.28999089631971 0.0 0.0 0.0 34.2284985734139" Properties=species:S:1:pos:R:3:initial_magmoms:R:1 pbc="T T T"
Si      -2.16445719       0.10596645      -0.99902775       0.00000000
Si       1.04764248      -1.92135663      -1.00344322       0.00000000
Si      -0.83181627      -0.09078417       2.27886625       0.00000000
Si       1.18366398       2.03247072      -0.65636606       0.00000000
Si      -0.64501884       2.94922305      -1.81287921       0.00000000
Si      -1.67795308       1.16910072      -3.03203056       0.00000000
Si       3.17208654      -1.05221997      -1.72388507       0.00000000
Si      -3.49540136       1.41366249       0.44260896       0.00000000
Si       0.13203045      -2.11297590       3.20053755       0.00000000
Si       1.42640127       3.38841774       1.18471745       0.00000000
