10
Lattice="16.28999089631971 0.0 0.0 0.0 16.28999089631971 0.0 0.0 0.0 34.2284985734139" Properties=species:S:1:pos:R:3:initial_magmoms:R:1 pbc="T T T"
Si      -1.32229188       0.76481550      -1.77382447       0.00000000
Si       0.86481981       1.75309722       1.32560203       0.00000000
Si      -1.89304461      -0.76266522       1.30119710       0.00000000
Si       1.65161052      -1.29220425      -1.31543616       0.00000000
Si       2.14026165       2.31762717      -0.63463095       0.00000000
Si      -1.19153205      -1.24554969      -3.03223593       0.00000000
Si       1.21525029      -2.80888470       1.72330318       0.00000000
Si       3.11826438      -1.22134275       1.18098655       0.00000000
Si      -0.57847419      -1.91598093       2.93417095       0.00000000
Si       2.30928669       0.62493327       2.75142517       0.00000000
