10
Lattice="16.28999089631971 0.0 0.0 0.0 16.28999089631971 0.0 0.0 0.0 34.2284985734139" Properties=species:S:1:pos:R:3:initial_magmoms:R:1 pbc="T T T"
Si       1.35743472       1.35687555       1.35743456       0.00000000
Si       1.35766441      -1.35775521      -1.35740033       0.00000000
Si      -1.35784831       1.35775521      -1.35726341       0.00000000
Si      -1.35949360      -1.35923760       1.35712650       0.00000000
Si      -0.00068305      -2.71446786      -2.71473220       0.00000000
Si      -2.71474015       2.71456053       0.00017114       0.00000000
Si       2.71475662       2.71465043       0.00000000       0.00000000
Si      -0.00038268       2.71494178      -2.71452682       0.00000000
Si      -2.71457725       0.00016290      -2.71565637       0.00000000
Si       2.71548967      -0.00215028      -2.71486911       0.00000000
