10
Lattice="16.28999089631971 0.0 0.0 0.0 16.28999089631971 0.0 0.0 0.0 34.2284985734139" Properties=species:S:1:pos:R:3:initial_magmoms:R:1 pbc="T T T"
Si      -1.36532584      -1.34324082      -1.38464623       0.00000000
Si       1.34945871       1.37360538      -1.38765834       0.00000000
Si      -1.34916370       1.36664955       1.40870887       0.00000000
Si       1.27248846      -1.49607360       1.53066508       0.00000000
Si       2.68320246      -2.70935280      -0.01786729       0.00000000
Si       2.69949246       2.70330921      -0.03097681       0.00000000
Si      -2.72852191      -2.70070281      -0.02118745       0.00000000
Si      -2.71747729       2.72554506      -0.01619009       0.00000000
Si      -0.00949218      -2.70130554      -2.74584592       0.00000000
Si       2.70473784       0.01585017      -2.74567478       0.00000000
