10
Lattice="16.28999089631971 0.0 0.0 0.0 16.28999089631971 0.0 0.0 0.0 34.2284985734139" Properties=species:S:1:pos:R:3:initial_magmoms:R:1 pbc="T T T"
Si       0.87245982      -0.24055443      -2.14732606       0.00000000
Si       0.14274927      -1.97946306       1.25567317       0.00000000
Si      -2.31159077      -0.24716817      -0.57223236       0.00000000
Si       1.10662857       1.76731839       1.23606023       0.00000000
Si      -3.14246222      -0.10428858       1.57834541       0.00000000
Si       0.57001968       3.48664711      -0.29470754       0.00000000
Si      -1.63141581      -1.46347731       2.82275740       0.00000000
Si       3.12407991       0.24060330      -1.93890861       0.00000000
Si      -2.43391238      -2.54280384      -1.30862469       0.00000000
Si       0.65441817      -2.47018302      -2.82874739       0.00000000
