10
Lattice="16.28999089631971 0.0 0.0 0.0 16.28999089631971 0.0 0.0 0.0 34.2284985734139" Properties=species:S:1:pos:R:3:initial_magmoms:R:1 pbc="T T T"
Si      -0.53660889       1.71932872      -1.53076777       0.00000000
Si       2.29304556      -0.53501247       0.42754841       0.00000000
Si      -1.10662857      -1.76731839      -1.23606023       0.00000000
Si      -1.07307117       0.37709721       2.14061727       0.00000000
Si      -2.71741961       2.00476210      -0.51445462       0.00000000
Si      -3.41838224       0.29584269       1.05351955       0.00000000
Si       1.11772206       0.63791640       3.35446319       0.00000000
Si       2.20916835      -1.31600394       2.60177809       0.00000000
Si       2.93272128      -2.13527691      -1.11961481       0.00000000
Si       1.11065220       3.40569233      -1.36328763       0.00000000
