10
Lattice="16.28999089631971 0.0 0.0 0.0 16.28999089631971 0.0 0.0 0.0 34.2284985734139" Properties=species:S:1:pos:R:3:initial_magmoms:R:1 pbc="T T T"
Si       0.79030772       1.63709613       1.48514115       0.00000000
Si      -1.51104641       1.35918873      -1.24441199       0.00000000
Si      -1.07621744      -2.05154631       0.68840395       0.00000000
Si       1.77416508      -0.51598575      -1.56708423       0.00000000
Si       0.25472673      -3.35924235      -0.75323276       0.00000000
Si       1.63141581       1.46347731      -2.82275740       0.00000000
Si       2.17761951       0.46170747       2.86479002       0.00000000
Si      -0.68033786       3.52663839      -0.53317762       0.00000000
Si      -0.68017496       1.21630914      -3.39498976       0.00000000
Si      -3.35109965      -1.48129857       0.26109513       0.00000000
