10
Lattice="10.86 0.0 0.0 0.0 10.86 0.0 0.0 0.0 10.86" Properties=species:S:1:pos:R:3:initial_magmoms:R:1 pbc="T T T"
Si       1.17303204       1.41156108      -1.51226586       0.00000000
Si      -1.54289106       1.45646718       1.13987646       0.00000000
Si      -1.49898408      -1.36598166      -1.31545008       0.00000000
Si       2.18561844      -0.30083286       1.15759998       0.00000000
Si       2.47862124       0.16817796      -2.80059852       0.00000000
Si      -0.23637876      -2.54682204      -2.80059852       0.00000000
Si       2.47862124       2.88317796      -0.08559852       0.00000000
Si      -2.95137876      -2.54682204      -0.08559852       0.00000000
Si      -0.23637876       2.88317796       2.62940148       0.00000000
Si      -2.95137876       0.16817796       2.62940148       0.00000000
