10
Lattice="10.86 0.0 0.0 0.0 10.86 0.0 0.0 0.0 10.86" Properties=species:S:1:pos:R:3:initial_magmoms:R:1 pbc="T T T"
Si       1.33594290      -1.35436146      -1.26136728       0.00000000
Si      -1.37905710       1.36063854      -1.26136728       0.00000000
Si      -1.37905710      -1.35436146       1.45363272       0.00000000
Si      -2.64166242       2.54147892       0.22378116       0.00000000
Si       2.69344290       0.00313854      -2.61886728       0.00000000
Si      -0.02155710      -2.71186146      -2.61886728       0.00000000
Si      -0.02155710       2.71813854      -2.61886728       0.00000000
Si      -2.73655710       0.00313854      -2.61886728       0.00000000
Si       2.69344290      -2.71186146       0.09613272       0.00000000
Si      -2.73655710      -2.71186146       0.09613272       0.00000000
