10
Lattice="16.290000149 0.0 0.0 0.0 16.290000149 0.0 0.0 0.0 29.1751946751" Properties=species:S:1:pos:R:3:initial_magmoms:R:1 pbc="T T T"
Si      -0.43883631       0.24821073      -2.28318509       0.00000000
Si       0.80971075       1.85925917       1.18127008       0.00000000
Si      -1.87385501      -0.80220106       1.19614651       0.00000000
Si       1.63313767      -1.73539001       0.08367883       0.00000000
Si       2.18470079       0.59492710       2.59856019       0.00000000
Si      -0.67095253      -2.19942695       2.63740988       0.00000000
Si      -2.15762681       1.87817186      -2.17830027       0.00000000
Si      -0.48799953      -2.04545387      -2.94986746       0.00000000
Si       1.71605378      -2.42758469      -2.14629508       0.00000000
Si       0.64439983      -3.52247470       1.23653373       0.00000000
