10
Lattice="16.290000149 0.0 0.0 0.0 16.290000149 0.0 0.0 0.0 29.1751946751" Properties=species:S:1:pos:R:3:initial_magmoms:R:1 pbc="T T T"
Si       1.22246677      -1.53466462       1.24178381       0.00000000
Si      -1.38983023      -1.35075052      -1.29161504       0.00000000
Si      -1.05469606       1.47009106       1.48067030       0.00000000
Si       1.38104992       1.31556412      -1.35480852       0.00000000
Si       0.76072672       2.21759030       2.86911782       0.00000000
Si      -2.35483355       0.10189395       2.87057658       0.00000000
Si      -0.00770517       2.59542056      -2.72330020       0.00000000
Si      -0.02686221      -2.70154991      -2.62203310       0.00000000
Si      -2.74594017       0.00957852      -2.59119492       0.00000000
Si      -2.48790656       2.83630080       0.19544463       0.00000000
