10
Lattice="16.290000149 0.0 0.0 0.0 16.290000149 0.0 0.0 0.0 29.1751946751" Properties=species:S:1:pos:R:3:initial_magmoms:R:1 pbc="T T T"
Si       1.08146053      -1.42387633      -1.49566635       0.00000000
Si      -1.54919530       1.32157513      -1.18343342       0.00000000
Si      -1.05114484      -1.76013452       1.18328755       0.00000000
Si       2.12411828       0.96803326       0.68258285       0.00000000
Si       0.21595653       0.80441650       3.39182061       0.00000000
Si       2.37605942      -2.71852409      -0.06853253       0.00000000
Si      -0.20569383       2.69987204      -2.49646306       0.00000000
Si       2.49487868      -0.09690921      -2.73470770       0.00000000
Si      -1.40778181      -0.87996952       3.31958283       0.00000000
Si       0.54433036      -3.54232569       1.09395310       0.00000000
