10
Lattice="16.290000149 0.0 0.0 0.0 16.290000149 0.0 0.0 0.0 29.1751946751" Properties=species:S:1:pos:R:3:initial_magmoms:R:1 pbc="T T T"
Si      -1.52109505       1.31725177       1.19720411       0.00000000
Si       1.41385798       1.28252149      -1.38208732       0.00000000
Si      -1.22756554      -1.43401523      -1.42739640       0.00000000
Si       0.98065801      -0.86193323       1.98671406       0.00000000
Si      -0.08086356       2.64719996       2.40639923       0.00000000
Si      -0.76466890      -1.18470003       3.48016310       0.00000000
Si       1.10224657      -3.16585402       1.75164951       0.00000000
Si      -2.68187159      -0.12348635       2.70022262       0.00000000
Si      -2.57106701      -2.81231214      -0.11436676       0.00000000
Si       0.06603966       2.61659105      -2.78847758       0.00000000
