10
Lattice="16.290000149 0.0 0.0 0.0 16.290000149 0.0 0.0 0.0 29.1751946751" Properties=species:S:1:pos:R:3:initial_magmoms:R:1 pbc="T T T"
Si      -1.33827238       1.15408135       1.55684674       0.00000000
Si      -1.30782637      -1.44684523      -1.37028596       0.00000000
Si       1.42703659      -1.36704052       1.33465721       0.00000000
Si       0.83381995       1.99772417      -1.09130545       0.00000000
H        1.91342342       0.28487952      -1.88050176       0.00000000
Si      -0.91227259       3.54002880      -0.63978576       0.00000000
Si      -2.74455552       2.51807564       0.30276267       0.00000000
Si      -2.70612740      -0.02117700      -2.59345599       0.00000000
Si       0.08384463       2.61387713       2.78186940       0.00000000
Si      -2.63441882      -2.82893772       0.00636019       0.00000000
