10
Lattice="16.290000149 0.0 0.0 0.0 16.290000149 0.0 0.0 0.0 29.1751946751" Properties=species:S:1:pos:R:3:initial_magmoms:R:1 pbc="T T T"
Si      -1.25960797      -1.36844146       1.42461309       0.00000000
Si      -1.45132498       1.41784903      -1.21552614       0.00000000
Si       0.95658139      -1.27004986      -1.75506301       0.00000000
Si       1.38838042       1.37948608       1.34084818       0.00000000
Si       2.34989768       0.16529463      -2.93210706       0.00000000
Si      -2.68646537       0.00749340       2.71815661       0.00000000
Si      -2.06931872      -3.22770063       0.24334300       0.00000000
Si       2.73654084       0.01687644       2.71727260       0.00000000
Si       0.02417436       2.72715779       2.73097911       0.00000000
Si      -0.18704178       2.90093952      -2.54267657       0.00000000
