10
Lattice="16.290000149 0.0 0.0 0.0 16.290000149 0.0 0.0 0.0 29.1751946751" Properties=species:S:1:pos:R:3:initial_magmoms:R:1 pbc="T T T"
Si      -1.27983869       1.35063649       1.41916899       0.00000000
Si       1.34554098      -1.32496345       1.38628855       0.00000000
Si      -1.38337613      -1.35943309      -1.32831744       0.00000000
Si       1.34128929       1.37759644      -1.35434171       0.00000000
Si       2.64942517       0.15151329       2.66941361       0.00000000
Si       0.01568401      -2.69412493      -2.67457762       0.00000000
Si      -2.68605487       0.02606400      -2.69943489       0.00000000
Si      -2.66481271       2.72326449       0.08344106       0.00000000
Si      -0.06593052      -2.61742510       2.77435679       0.00000000
Si       2.71935814       0.03026682      -2.71069651       0.00000000
