10
Lattice="16.290000149 0.0 0.0 0.0 16.290000149 0.0 0.0 0.0 29.1751946751" Properties=species:S:1:pos:R:3:initial_magmoms:R:1 pbc="T T T"
Si       1.35575155       1.34032492      -1.31552412       0.00000000
Si       1.43330824      -1.31966920       1.28295001       0.00000000
Si      -1.33604065       1.44127405       1.28922268       0.00000000
Si      -1.30460095      -1.29502243      -1.47587974       0.00000000
Si      -0.05053158       2.70431921      -2.56960819       0.00000000
Si       0.05333346      -2.63749763       2.64648191       0.00000000
Si      -2.67170663      -2.64525167      -0.12519076       0.00000000
Si      -2.69992091       0.07965810       2.61879465       0.00000000
Si       2.77969305      -2.59895549      -0.17756023       0.00000000
Si       2.76861585       0.08469171       2.62156629       0.00000000
