10
Lattice="16.290000149 0.0 0.0 0.0 16.290000149 0.0 0.0 0.0 29.1751946751" Properties=species:S:1:pos:R:3:initial_magmoms:R:1 pbc="T T T"
Si      -1.41385798      -1.28252149       1.38208732       0.00000000
Si       1.32431185      -1.39423342      -1.36443633       0.00000000
Si       1.40041873       1.37036368       1.31314634       0.00000000
Si      -1.34781832       1.33406956      -1.40639026       0.00000000
Si       0.00728163       2.72337852       2.62527154       0.00000000
Si      -2.64142352      -2.71653671      -0.04530908       0.00000000
Si       2.58584204      -2.78642082       0.06579006       0.00000000
Si       2.69052158      -0.03520269      -2.74229325       0.00000000
Si      -2.71873586       2.72078840      -0.09505278       0.00000000
Si       2.73976625       2.72086985      -0.05884637       0.00000000
