10
Lattice="16.290000149 0.0 0.0 0.0 16.290000149 0.0 0.0 0.0 29.1751946751" Properties=species:S:1:pos:R:3:initial_magmoms:R:1 pbc="T T T"
Si      -1.34680834      -1.35694072      -1.36248159       0.00000000
Si      -1.36976095       1.36345672       1.33648649       0.00000000
Si       1.35164647       1.37556019      -1.34669781       0.00000000
Si       1.34592868      -1.35920503       1.36890013       0.00000000
Si      -0.00441459       2.71875215       2.68335935       0.00000000
Si      -2.70703964      -2.70128927       0.01006544       0.00000000
Si      -2.69922044       0.01050705      -2.71871969       0.00000000
Si       0.03124422      -2.70581789      -2.71294300       0.00000000
Si       2.77039146       0.04481379      -2.64896180       0.00000000
Si       2.71700912      -2.70497081       0.03057560       0.00000000
