10
Lattice="16.290000149 0.0 0.0 0.0 16.290000149 0.0 0.0 0.0 29.1751946751" Properties=species:S:1:pos:R:3:initial_magmoms:R:1 pbc="T T T"
Si      -1.33351570      -1.34013270       1.32880758       0.00000000
Si       1.49789809      -1.23577570      -1.27991871       0.00000000
Si      -1.24937785       1.37039626      -1.41344482       0.00000000
Si       1.41960835       1.42900768       1.23600129       0.00000000
Si       0.65829520       2.16075449      -2.53553740       0.00000000
H       -0.55426726      -0.45773271      -3.33528492       0.00000000
Si       2.36346725       0.49230009      -2.66224439       0.00000000
Si       0.10046043      -2.68657940       2.59063475       0.00000000
Si      -2.66374082       0.07931601       2.61520027       0.00000000
Si      -2.69426828      -2.62266427      -0.08118290       0.00000000
