10
Lattice="16.290000149 0.0 0.0 0.0 16.290000149 0.0 0.0 0.0 29.1751946751" Properties=species:S:1:pos:R:3:initial_magmoms:R:1 pbc="T T T"
Si      -2.06793407       0.72329393      -0.84771446       0.00000000
Si      -0.78115438      -1.50084495       1.70928713       0.00000000
Si       1.05834502      -0.66207285      -2.06785027       0.00000000
Si       0.92216062       2.07927354       0.81401711       0.00000000
H       -1.38517129       2.27589384       1.73148945       0.00000000
Si      -1.31531977       1.31394327      -3.00236093       0.00000000
Si      -2.66776445       2.23573899       0.91408802       0.00000000
H        0.40550697      -3.58202279      -0.51613837       0.00000000
Si      -2.32352417      -2.81236916       0.52162331       0.00000000
Si      -3.35428696      -1.26353223      -0.95817174       0.00000000
