10
Lattice="16.290000149 0.0 0.0 0.0 16.290000149 0.0 0.0 0.0 29.1751946751" Properties=species:S:1:pos:R:3:initial_magmoms:R:1 pbc="T T T"
Si      -1.38381922       1.34387614       1.33526113       0.00000000
Si      -1.36570474      -1.33916833      -1.37298466       0.00000000
Si       1.34460919       1.37147140      -1.36262747       0.00000000
Si       1.33920091      -1.36761067       1.37493940       0.00000000
Si      -2.68063355       2.64691325      -0.12609519       0.00000000
Si       2.65882613      -2.70216893      -0.03436838       0.00000000
Si       0.00198738       2.70457985       2.66652527       0.00000000
Si      -2.73121401      -0.04841388       2.68155049       0.00000000
Si       2.73007859       0.00925272       2.68651028       0.00000000
Si      -0.01915704      -2.68690520      -2.74028016       0.00000000
