10
Lattice="16.290000149 0.0 0.0 0.0 16.290000149 0.0 0.0 0.0 29.1751946751" Properties=species:S:1:pos:R:3:initial_magmoms:R:1 pbc="T T T"
Si      -2.22801590       0.52082388      -0.32495332       0.00000000
Si       0.88806565      -1.42299667       1.59042739       0.00000000
Si       0.55938232      -1.03783591      -2.00932483       0.00000000
Si       1.24506100       1.78332170      -0.84497199       0.00000000
H       -0.02638980      -1.49644828       2.80221910       0.00000000
Si       0.60062860       1.10693483      -2.99004900       0.00000000
Si       2.77635360      -0.08392608       1.97939108       0.00000000
Si       3.30069612       1.16913005       0.04705959       0.00000000
Si       1.15805611       1.44674261       3.05467206       0.00000000
Si      -1.06435603      -2.72222192      -2.08156261       0.00000000
