10
Lattice="16.290000149 0.0 0.0 0.0 16.290000149 0.0 0.0 0.0 29.1751946751" Properties=species:S:1:pos:R:3:initial_magmoms:R:1 pbc="T T T"
Si       1.41695308      -1.34293067       1.25462381       0.00000000
Si      -1.49789809       1.23577570       1.27991871       0.00000000
Si      -1.03946491      -1.85378573      -0.95226960       0.00000000
Si       0.86556916       1.72807580      -1.38232568       0.00000000
H       -2.05216535       0.77804299      -2.05536621       0.00000000
Si      -1.87349663      -0.60955226      -2.66576963       0.00000000
Si      -0.07828974       2.66478338       2.51592000       0.00000000
Si       2.64870515      -2.54404190      -0.34158610       0.00000000
Si      -0.83960290       3.39653019      -1.25561869       0.00000000
Si      -0.04334769      -2.77993740       2.46938556       0.00000000
