10
Lattice="16.290000149 0.0 0.0 0.0 16.290000149 0.0 0.0 0.0 29.1751946751" Properties=species:S:1:pos:R:3:initial_magmoms:R:1 pbc="T T T"
Si       1.35322660       1.39784491      -1.32028259       0.00000000
Si      -1.35174421       1.36928854       1.35880552       0.00000000
Si       1.37650501      -1.34721559       1.35947655       0.00000000
Si      -1.36225126      -1.36780615      -1.36347647       0.00000000
Si       2.73483039       0.04140918      -2.64496188       0.00000000
Si      -2.70807895      -2.69669549       0.01803027       0.00000000
Si       2.69040755       2.72251514       0.08460806       0.00000000
Si      -2.69848251       0.02148651       2.72718050       0.00000000
Si       0.02125845      -2.69105915       2.73546625       0.00000000
Si      -2.71748153       2.71715573      -0.01321636       0.00000000
