10
Lattice="16.290000149 0.0 0.0 0.0 16.290000149 0.0 0.0 0.0 29.1751946751" Properties=species:S:1:pos:R:3:initial_magmoms:R:1 pbc="T T T"
Si      -1.27906638       1.37242600      -1.38782025       0.00000000
Si       1.30137553       1.32732062       1.42534830       0.00000000
Si      -1.41198463      -1.39061215       1.25636557       0.00000000
Si       1.32985045      -1.31393512      -1.41982835       0.00000000
Si       2.64759743       2.65735514       0.07849878       0.00000000
Si      -0.04624731      -2.73847935       2.62838745       0.00000000
Si       2.65872350      -2.70992297      -0.05070065       0.00000000
Si      -0.09754452      -2.67279806      -2.69896196       0.00000000
Si      -2.71104609       2.68004711      -0.03552955       0.00000000
Si      -2.69348816      -0.04540023       2.71270377       0.00000000
