10
Lattice="16.290000149 0.0 0.0 0.0 16.290000149 0.0 0.0 0.0 29.1751946751" Properties=species:S:1:pos:R:3:initial_magmoms:R:1 pbc="T T T"
Si      -1.37108044       1.34576578       1.33832453       0.00000000
Si      -1.38557854      -1.35022924      -1.32484559       0.00000000
Si       1.36247932      -1.36588393       1.33572794       0.00000000
Si       1.37051029       1.35839053      -1.33788690       0.00000000
Si       0.00685809       2.68130144       2.68300925       0.00000000
Si      -0.05535342      -2.76967795      -2.61123827       0.00000000
Si      -0.00171045      -2.71327383       2.68633522       0.00000000
Si       2.69777063      -0.00053757      -2.70404457       0.00000000
Si      -2.72062550      -0.01931994       2.69476686       0.00000000
Si       2.72178209      -0.02187747       2.69899726       0.00000000
