10
Lattice="16.290000149 0.0 0.0 0.0 16.290000149 0.0 0.0 0.0 29.1751946751" Properties=species:S:1:pos:R:3:initial_magmoms:R:1 pbc="T T T"
Si       1.33125465       1.36024759       1.37839082       0.00000000
Si      -1.29541339      -1.31435866       1.46927156       0.00000000
Si      -1.38803833       1.36032904      -1.35641899       0.00000000
Si       1.40033402      -1.34951248      -1.36902267       0.00000000
Si      -0.10673208      -2.73443943      -2.53565410       0.00000000
Si       0.07115961       2.53904087      -2.77326855       0.00000000
Si      -2.68568345      -2.65927736       0.19383708       0.00000000
Si       2.67708233       2.68913693      -0.00311591       0.00000000
Si       2.70053993       0.01143558       2.74221448       0.00000000
Si       2.75920023      -2.68887629       0.01187430       0.00000000
