10
Lattice="16.290000149 0.0 0.0 0.0 16.290000149 0.0 0.0 0.0 29.1751946751" Properties=species:S:1:pos:R:3:initial_magmoms:R:1 pbc="T T T"
H        1.31242015      -0.46147941       0.60471426       0.00000000
Si      -1.25786494       0.24632109       1.93898344       0.00000000
Si       0.27192897       2.02971773      -1.19647473       0.00000000
Si      -0.97023241      -1.99650242      -0.87767738       0.00000000
H        1.88564897      -0.57681262      -1.72705482       0.00000000
Si       3.06696720      -1.09504639      -0.92254883       0.00000000
H       -0.88940143      -2.81828406       1.69916334       0.00000000
Si      -1.92228518       2.75270052      -0.72876719       0.00000000
Si      -3.32109120      -0.44668809       1.03621539       0.00000000
H        1.07769754       0.16413804      -3.37521992       0.00000000
