10
Lattice="16.290000149 0.0 0.0 0.0 16.290000149 0.0 0.0 0.0 29.1751946751" Properties=species:S:1:pos:R:3:initial_magmoms:R:1 pbc="T T T"
Si       1.49986918      -1.25604046      -1.28181218       0.00000000
Si      -1.33203331       1.42692256      -1.36770395       0.00000000
Si      -1.38609982      -1.81907174       0.75397456       0.00000000
Si       1.03074976       1.68321314       1.40563170       0.00000000
H        2.95468837       0.07869699       1.67401432       0.00000000
Si      -2.46373220       2.54062100       0.38330371       0.00000000
Si       0.07415208      -2.52742610      -2.68455554       0.00000000
Si       2.66478338       2.71849151      -0.02404036       0.00000000
Si      -0.61458913       3.38572992       1.63903326       0.00000000
Si       2.79029767      -2.59445945       0.22537838       0.00000000
