10
Lattice="16.290000149 0.0 0.0 0.0 16.290000149 0.0 0.0 0.0 29.1751946751" Properties=species:S:1:pos:R:3:initial_magmoms:R:1 pbc="T T T"
Si       1.31203209       1.33674731      -1.36615767       0.00000000
Si      -1.27715230      -1.46217412      -1.29806276       0.00000000
Si      -1.30375387       1.41228763       1.33806195       0.00000000
Si       1.23369058      -1.48827070       1.36239407       0.00000000
H       -1.92683009      -2.28659474      -0.22143973       0.00000000
Si      -2.59012631      -0.03033198       2.61899888       0.00000000
Si       2.53943998       2.70430618       0.07705169       0.00000000
Si      -0.15856686       2.62754444      -2.63907141       0.00000000
Si       2.69183619      -0.05734080      -2.66573754       0.00000000
Si       2.57348445      -2.78692581      -0.06313512       0.00000000
