10
Lattice="16.290000149 0.0 0.0 0.0 16.290000149 0.0 0.0 0.0 29.1751946751" Properties=species:S:1:pos:R:3:initial_magmoms:R:1 pbc="T T T"
Si      -1.30613221      -1.31428861      -1.44653533       0.00000000
Si      -1.32431185       1.39423342       1.36443633       0.00000000
Si       1.26153019      -1.39218740       1.43022639       0.00000000
Si       1.36620973       1.35903073      -1.37785692       0.00000000
Si      -2.66123216      -2.66883471      -0.11220780       0.00000000
Si       2.66067830       0.02342991       2.68913604       0.00000000
Si       2.69175962      -2.67403122       0.01829285       0.00000000
Si      -2.67213017       2.72830298      -0.04195393       0.00000000
Si       0.07610688       2.76459710       2.67758267       0.00000000
Si      -2.68076387       0.03229655      -2.78296347       0.00000000
