10
Lattice="16.290000149 0.0 0.0 0.0 16.290000149 0.0 0.0 0.0 29.1751946751" Properties=species:S:1:pos:R:3:initial_magmoms:R:1 pbc="T T T"
Si       1.41889159       1.30943908       1.31545118       0.00000000
Si       1.37875303      -1.34734591      -1.32055684       0.00000000
Si      -1.34767171      -1.35865117       1.35241615       0.00000000
Si      -1.36332640       1.39429369      -1.30343100       0.00000000
Si       0.05743854       2.67981905       2.57748257       0.00000000
Si       0.00734679      -2.70879896      -2.64712376       0.00000000
Si       2.73033435       0.04432509      -2.64732799       0.00000000
Si      -2.71762814       0.04061097      -2.66389950       0.00000000
Si       0.01181025       2.73676889      -2.64540243       0.00000000
Si       2.73382041      -2.67664250       0.06856171       0.00000000
