10
Lattice="16.290000149 0.0 0.0 0.0 16.290000149 0.0 0.0 0.0 29.1751946751" Properties=species:S:1:pos:R:3:initial_magmoms:R:1 pbc="T T T"
Si       0.17866872      -1.38759524      -0.61040342       0.00000000
Si      -0.69511060       1.82812898       1.92184009       0.00000000
Si      -0.51184809       1.28187640      -2.39630461       0.00000000
Si      -2.53400726       0.94662820       0.73541621       0.00000000
Si      -2.45109116       0.25443351      -1.49455770       0.00000000
Si       1.21256245       2.61848720       0.79974752       0.00000000
Si       2.05216535      -0.77804299       2.05536621       0.00000000
Si       1.01270044      -2.63182871       1.10309661       0.00000000
Si       2.91773451       0.95003281       0.67304052       0.00000000
Si       2.07387992      -1.37140787      -1.94925311       0.00000000
