10
Lattice="16.290000149 0.0 0.0 0.0 16.290000149 0.0 0.0 0.0 29.1751946751" Properties=species:S:1:pos:R:3:initial_magmoms:R:1 pbc="T T T"
Si       1.30640914       1.21528288      -1.50891189       0.00000000
Si       1.43321050      -1.36620973       1.28522568       0.00000000
Si      -1.45775953       1.39038409       1.25094482       0.00000000
Si      -1.45997497      -1.42656418      -1.29596215       0.00000000
H       -2.04327101      -0.89176348       1.08380013       0.00000000
Si      -2.72852941      -0.24417081       2.44254730       0.00000000
Si      -0.12660588       2.58605381      -2.74976210       0.00000000
Si       2.48790656      -2.83630080      -0.19544463       0.00000000
Si       0.13307301      -2.73440685       2.67513195       0.00000000
Si       3.15170778       2.15112710      -0.39170616       0.00000000
