10
Lattice="16.290000149 0.0 0.0 0.0 16.290000149 0.0 0.0 0.0 29.1751946751" Properties=species:S:1:pos:R:3:initial_magmoms:R:1 pbc="T T T"
H        0.68525840      -0.64759267      -1.35874717       0.00000000
Si       1.50278835      -1.02304459       1.47874474       0.00000000
Si      -1.58287977      -1.41545440      -1.06804553       0.00000000
Si       1.27076988       1.63455490      -1.19160248       0.00000000
Si      -1.55585466       1.12541095       1.46500323       0.00000000
H       -2.58113098       0.01479132       1.68308781       0.00000000
Si       1.90078564       0.81037864       2.94001354       0.00000000
Si      -0.11892515      -2.62743041      -2.45249604       0.00000000
Si      -0.41703541       0.97604794       3.50245295       0.00000000
Si       2.72852941       0.24417081      -2.44254730       0.00000000
