10
Lattice="16.290000149 0.0 0.0 0.0 16.290000149 0.0 0.0 0.0 29.1751946751" Properties=species:S:1:pos:R:3:initial_magmoms:R:1 pbc="T T T"
Si       1.30854313       1.34515165      -1.42348692       0.00000000
Si      -1.34275213      -1.34724329      -1.38929360       0.00000000
Si       1.42674337      -1.36501568       1.29313215       0.00000000
Si      -1.41938029       1.35640804       1.33590299       0.00000000
Si       0.07964181      -2.64918897       2.66754640       0.00000000
Si      -2.67845558      -2.69770059      -0.01881800       0.00000000
Si       2.59861340       2.78246723      -0.10818162       0.00000000
Si       2.68042178      -0.04801966       2.76545835       0.00000000
Si      -2.76492127       2.68137149      -0.05038556       0.00000000
Si       2.73377153      -0.01765836      -2.72192896       0.00000000
