10
Lattice="16.290000149 0.0 0.0 0.0 16.290000149 0.0 0.0 0.0 29.1751946751" Properties=species:S:1:pos:R:3:initial_magmoms:R:1 pbc="T T T"
Si      -1.41343444      -1.29533194      -1.34414206       0.00000000
Si      -1.38160378       1.35643573       1.32467929       0.00000000
Si       1.32155884       1.40325319      -1.34275420       0.00000000
Si       1.37171575      -1.41200092       1.30410494       0.00000000
Si       2.62578512       2.58734072       0.21037649       0.00000000
Si       2.66421323       0.04808808      -2.68584216       0.00000000
Si      -0.10378359      -2.72130968      -2.64240030       0.00000000
Si      -2.73483039      -0.04140918       2.64496188       0.00000000
Si      -2.69358410       0.20079054      -2.68199104       0.00000000
Si      -0.04442283       2.68110596       2.72956995       0.00000000
