10
Lattice="16.290000149 0.0 0.0 0.0 16.290000149 0.0 0.0 0.0 29.1751946751" Properties=species:S:1:pos:R:3:initial_magmoms:R:1 pbc="T T T"
H        0.91364095      -0.90647335       0.79528663       0.00000000
Si       1.35114148       1.30038184      -1.39679162       0.00000000
Si      -1.30388419      -1.47647674      -1.28312506       0.00000000
Si      -1.14878710       1.42612435       1.47410589       0.00000000
H       -1.09933066      -1.24695064       2.21209244       0.00000000
Si      -2.59438941       2.61583193       0.08031931       0.00000000
Si      -0.48918870      -2.55221297       2.65695580       0.00000000
Si      -2.64942517      -0.15151329      -2.66941361       0.00000000
Si      -0.00496845       2.66071088      -2.69637149       0.00000000
Si       2.74097172       2.65113236      -0.10517658       0.00000000
