10
Lattice="16.290000149 0.0 0.0 0.0 16.290000149 0.0 0.0 0.0 29.1751946751" Properties=species:S:1:pos:R:3:initial_magmoms:R:1 pbc="T T T"
Si       2.24588603      -0.50560902       0.27663920       0.00000000
Si      -1.57361401      -1.68686372      -0.44314203       0.00000000
Si      -0.72975943       0.63457696       2.17915160       0.00000000
Si      -0.07532496       1.45999126      -1.93145624       0.00000000
H        0.26163369      -1.10571960      -2.81823628       0.00000000
Si      -2.82699921      -0.58090141      -2.04748599       0.00000000
Si      -1.30178278       3.31426569      -1.26719541       0.00000000
Si       1.30751686      -2.21974710      -2.83889232       0.00000000
Si       3.17709900      -1.32017908      -1.71853567       0.00000000
H       -0.00602730       3.86216356      -0.34295441       0.00000000
