10
Lattice="16.290000149 0.0 0.0 0.0 16.290000149 0.0 0.0 0.0 29.1751946751" Properties=species:S:1:pos:R:3:initial_magmoms:R:1 pbc="T T T"
Si      -0.12158856       2.30392079       0.23506454       0.00000000
Si       1.60023187       0.07302807      -1.79156118       0.00000000
Si       0.28605240      -0.88659955       2.24153021       0.00000000
Si      -2.12411828      -0.96803326      -0.68258285       0.00000000
H        1.09182097      -2.75217924       0.06278502       0.00000000
H        2.52833834      -1.83656720       0.60859456       0.00000000
Si      -1.86691547       1.98115398       1.72851358       0.00000000
Si      -1.90816175      -0.16361676       2.70923775       0.00000000
Si       3.17801613      -1.01214658      -0.46802847       0.00000000
Si      -1.04265775      -2.39190959      -2.17824921       0.00000000
