10
Lattice="16.290000149 0.0 0.0 0.0 16.290000149 0.0 0.0 0.0 29.1751946751" Properties=species:S:1:pos:R:3:initial_magmoms:R:1 pbc="T T T"
Si       1.34355034      -1.33099075      -1.38693040       0.00000000
Si      -1.36332640       1.33946155      -1.36388200       0.00000000
Si      -1.35158131      -1.39167100       1.32677115       0.00000000
Si       1.37072206       1.34731333       1.35650068       0.00000000
Si      -2.73033435      -0.04432509       2.64732799       0.00000000
Si       2.68864823      -2.71169858      -0.03209271       0.00000000
Si      -2.69863400      -0.06489936      -2.70249828       0.00000000
Si      -2.71852409       2.69244380       0.00192556       0.00000000
Si       2.71790232       2.70076799      -0.00201309       0.00000000
Si       0.02637351       2.71249679       2.70696209       0.00000000
