10
Lattice="16.290000149 0.0 0.0 0.0 16.290000149 0.0 0.0 0.0 29.1751946751" Properties=species:S:1:pos:R:3:initial_magmoms:R:1 pbc="T T T"
H       -0.64886329       0.42518529      -0.04107867       0.00000000
Si       1.99161542       0.62367895       1.08260395       0.00000000
H       -1.79323580      -1.21191085       1.08234137       0.00000000
Si       0.74951920      -0.55700398      -2.50399026       0.00000000
Si       0.20903328       2.16841079       1.71343001       0.00000000
Si      -2.51191802      -1.29111283      -0.24288350       0.00000000
Si      -0.90486064      -2.08098236      -1.76655804       0.00000000
Si       2.59866227       0.28810494      -1.24826070       0.00000000
Si       1.23134482      -1.25086024       2.36132356       0.00000000
Si      -0.72969427       1.24696693      -2.61791939       0.00000000
