10
Lattice="16.290000149 0.0 0.0 0.0 16.290000149 0.0 0.0 0.0 29.1751946751" Properties=species:S:1:pos:R:3:initial_magmoms:R:1 pbc="T T T"
Si       1.34718026       1.35345466      -1.35851376       0.00000000
Si      -1.34434855       1.36518346       1.35046141       0.00000000
Si       1.34307793      -1.35764119       1.36974621       0.00000000
Si      -1.37072206      -1.34731333      -1.35650068       0.00000000
Si      -2.68216481      -0.08219934       2.60627849       0.00000000
Si       2.66978116      -2.70612740      -0.02730798       0.00000000
Si       2.66183164       2.71930601       0.03544786       0.00000000
Si      -0.02119329       2.71070489      -2.69905561       0.00000000
Si       2.69085879       0.02057427       2.72213319       0.00000000
Si      -0.02717172      -2.67830408      -2.74343108       0.00000000
