10
Lattice="16.290000149 0.0 0.0 0.0 16.290000149 0.0 0.0 0.0 29.1751946751" Properties=species:S:1:pos:R:3:initial_magmoms:R:1 pbc="T T T"
H        1.21982779      -1.95791141       0.23990763       0.00000000
H       -1.99161542      -0.62367895      -1.08260395       0.00000000
Si       1.88160905       0.70814260       1.26865417       0.00000000
Si      -0.76027060      -1.87453919       1.27871961       0.00000000
Si       0.60704686      -0.33557400      -2.33086465       0.00000000
Si      -1.78258214       1.54473184       0.63082606       0.00000000
H       -2.64047870      -0.19849365      -1.12368262       0.00000000
H        2.33530184       1.98643520       0.59753716       0.00000000
H       -0.43865712       2.15831099      -2.21813170       0.00000000
H        2.88816816       0.42743331      -1.24280494       0.00000000
