10
Lattice="16.290000149 0.0 0.0 0.0 16.290000149 0.0 0.0 0.0 29.1751946751" Properties=species:S:1:pos:R:3:initial_magmoms:R:1 pbc="T T T"
Si       0.64967779       0.82442062      -1.07662303       0.00000000
H       -1.43651737      -0.91561204      -0.54580954       0.00000000
H       -0.62856595      -1.65656270       1.10235556       0.00000000
Si      -2.24228594       0.94996765       1.63293565       0.00000000
Si       0.55275229      -2.17479647       1.90686155       0.00000000
Si       1.92683009       2.28659474       0.22143973       0.00000000
Si       1.88649605      -0.54108864      -2.49529605       0.00000000
Si      -2.52833834       1.83656720      -0.60859456       0.00000000
Si      -0.92810647       1.90959527      -2.40015574       0.00000000
Si      -2.27639720      -1.84999016      -1.35970995       0.00000000
