10
Lattice="16.290000149 0.0 0.0 0.0 16.290000149 0.0 0.0 0.0 29.1751946751" Properties=species:S:1:pos:R:3:initial_magmoms:R:1 pbc="T T T"
Si      -1.31193145      -1.36011727      -1.34549579       0.00000000
Si       1.31712796      -1.39139407       1.34165050       0.00000000
Si      -1.41874498       1.33074640       1.30226399       0.00000000
Si       1.30922731       1.28953270      -1.47012639       0.00000000
Si      -0.04520475       2.65733885       2.66594176       0.00000000
Si       2.69558777      -0.02743236       2.64656943       0.00000000
Si       2.68115483       2.69588099      -0.15810038       0.00000000
Si       2.64438830      -2.75032218      -0.02450716       0.00000000
Si      -2.77039146      -0.04481379       2.64896180       0.00000000
Si      -2.77024485       2.64958481      -0.10573091       0.00000000
