10
Lattice="16.290000149 0.0 0.0 0.0 16.290000149 0.0 0.0 0.0 29.1751946751" Properties=species:S:1:pos:R:3:initial_magmoms:R:1 pbc="T T T"
Si       1.76269205       1.02206719       1.15516266       0.00000000
Si       1.33979387      -1.29865510      -1.42552919       0.00000000
Si      -1.23369058       1.48827070      -1.36239407       0.00000000
Si      -1.29521791      -1.30838023       1.48916029       0.00000000
Si      -2.29628729       0.45926397       2.76140300       0.00000000
H       -3.16052067      -0.79832404      -1.58383379       0.00000000
Si      -2.51084288       0.02609658      -2.66045683       0.00000000
Si       3.43823259      -0.59792446       1.27040468       0.00000000
Si       2.81641071      -2.45066762      -0.04907268       0.00000000
Si       2.68796405       2.74546776      -0.12837086       0.00000000
