10
Lattice="16.290000149 0.0 0.0 0.0 16.290000149 0.0 0.0 0.0 29.1751946751" Properties=species:S:1:pos:R:3:initial_magmoms:R:1 pbc="T T T"
Si      -1.34203537      -1.33380892       1.37146755       0.00000000
Si       1.37155285      -1.35920503      -1.32227817       0.00000000
Si       1.36112725       1.30657204       1.39066483       0.00000000
Si      -1.35485560       1.33380892      -1.38001588       0.00000000
Si      -0.06856461       2.75066427       2.51122571       0.00000000
Si      -0.00276930      -2.72368802      -2.65307550       0.00000000
Si      -2.77852017       0.03719007       2.60449880       0.00000000
Si       2.72663651       0.01581759      -2.66387032       0.00000000
Si       2.70852203       2.69886206       0.04437547       0.00000000
Si      -2.72763020      -2.68361462       0.03355147       0.00000000
