10
Lattice="16.290000149 0.0 0.0 0.0 16.290000149 0.0 0.0 0.0 29.1751946751" Properties=species:S:1:pos:R:3:initial_magmoms:R:1 pbc="T T T"
Si       1.81074755       1.32602719       0.60556034       0.00000000
Si      -0.73137214      -0.34434943       2.26247800       0.00000000
Si      -1.22144050       1.87239379      -0.95111135       0.00000000
Si       1.61829748      -1.53066869      -1.07528097       0.00000000
H        0.71736274      -2.52053055       0.99102301       0.00000000
H       -1.18444591      -2.94319089      -0.25245296       0.00000000
Si      -0.26999046      -2.86973928      -1.46424467       0.00000000
Si       0.47840472       2.87334914       1.76285279       0.00000000
Si      -1.46083834       1.84590625       2.66459970       0.00000000
Si      -1.15805611      -1.44674261      -3.05467206       0.00000000
