10
Lattice="16.290000149 0.0 0.0 0.0 16.290000149 0.0 0.0 0.0 29.1751946751" Properties=species:S:1:pos:R:3:initial_magmoms:R:1 pbc="T T T"
H        0.64886329      -0.42518529       0.04107867       0.00000000
H       -1.14437251      -1.63709614       1.12342005       0.00000000
Si      -1.86305474      -1.71629813      -0.20180482       0.00000000
Si       0.85789657       1.74322550       1.75450868       0.00000000
Si      -0.08083098       0.82178164      -2.57684072       0.00000000
Si      -2.20305962       0.23659596      -1.57108423       0.00000000
Si       2.64047870       0.19849365       1.12368262       0.00000000
Si       1.39838248      -0.98218927      -2.46291158       0.00000000
Si      -0.25599735      -2.50616765      -1.72547936       0.00000000
Si      -0.36846351       3.06460515       0.23982010       0.00000000
