10
Lattice="16.290000149 0.0 0.0 0.0 16.290000149 0.0 0.0 0.0 29.1751946751" Properties=species:S:1:pos:R:3:initial_magmoms:R:1 pbc="T T T"
Si      -1.33882950       1.35879778      -1.36315262       0.00000000
Si       1.35133696       1.38727270       1.32178219       0.00000000
Si       1.38859219      -1.35119035      -1.33345227       0.00000000
Si      -1.35131579      -1.36635634       1.36216066       0.00000000
Si       2.65847915      -0.04162095       2.61940733       0.00000000
Si      -2.66553272       2.70728399       0.03390158       0.00000000
Si       0.04072500      -2.71305065      -2.68408873       0.00000000
Si      -2.69068448       0.00591327      -2.72443803       0.00000000
Si      -2.69358410      -2.72746730       0.00881091       0.00000000
Si       0.02002041       2.71060715      -2.72560504       0.00000000
