10
Lattice="10.86 0.0 0.0 0.0 10.86 0.0 0.0 0.0 10.86" Properties=species:S:1:pos:R:3:initial_magmoms:R:1 pbc="T T T"
Si      -1.32240048       1.32943776      -1.34650968       0.00000000
Si      -1.32240048      -1.38556224       1.36849032       0.00000000
Si       1.39259952      -1.38556224      -1.34650968       0.00000000
Si       1.12006782       2.08488108       0.52554798       0.00000000
Si      -2.67990048       2.68693776       0.01099032       0.00000000
Si      -2.67990048      -0.02806224      -2.70400968       0.00000000
Si      -2.67990048      -0.02806224       2.72599032       0.00000000
Si      -2.67990048      -2.74306224       0.01099032       0.00000000
Si       0.03509952      -2.74306224      -2.70400968       0.00000000
Si       0.03509952      -2.74306224       2.72599032       0.00000000
