10
Lattice="10.86 0.0 0.0 0.0 10.86 0.0 0.0 0.0 10.86" Properties=species:S:1:pos:R:3:initial_magmoms:R:1 pbc="T T T"
Si       1.41931512       1.40704332       1.17256506       0.00000000
Si      -1.29568488       1.40704332      -1.54243494       0.00000000
Si       1.41931512      -1.30795668      -1.54243494       0.00000000
Si       0.07306608       2.72796684       2.37532092       0.00000000
Si      -2.57489514      -2.61541380      -0.22163088       0.00000000
Si       2.77681512       0.04954332       2.53006506       0.00000000
Si       2.77681512      -2.66545668      -0.18493494       0.00000000
Si       2.77681512       2.76454332      -0.18493494       0.00000000
Si      -2.65318488       0.04954332      -2.89993494       0.00000000
Si       0.06181512      -2.66545668      -2.89993494       0.00000000
