10
Lattice="10.86 0.0 0.0 0.0 10.86 0.0 0.0 0.0 10.86" Properties=species:S:1:pos:R:3:initial_magmoms:R:1 pbc="T T T"
Si       1.34624904      -1.32092352      -1.20275586       0.00000000
Si      -1.36875096       1.39407648      -1.20275586       0.00000000
Si       1.34624904       1.39407648       1.51224414       0.00000000
Si      -0.07306608      -2.72796684      -2.37532092       0.00000000
Si       2.70374904       0.03657648      -2.56025586       0.00000000
Si      -2.97179556       0.12024192      -2.24715120       0.00000000
Si      -0.01125096       2.75157648      -2.56025586       0.00000000
Si       2.70374904      -2.67842352       0.15474414       0.00000000
Si       2.70374904       2.75157648       0.15474414       0.00000000
Si      -2.72625096       2.75157648       0.15474414       0.00000000
