10
Lattice="10.86 0.0 0.0 0.0 10.86 0.0 0.0 0.0 10.86" Properties=species:S:1:pos:R:3:initial_magmoms:R:1 pbc="T T T"
Si      -1.18939806      -1.19418732       1.42638498       0.00000000
Si       1.52560194      -1.19418732      -1.28861502       0.00000000
Si      -1.47870846       1.53078216      -1.28182752       0.00000000
Si       1.52560194       1.52081268       1.42638498       0.00000000
Si      -2.54689806      -2.55168732       0.06888498       0.00000000
Si      -2.56546866       0.35765238      -2.57865270       0.00000000
Si       0.16810194      -2.55168732      -2.64611502       0.00000000
Si       0.16810194      -2.55168732       2.78388498       0.00000000
Si       2.88310194      -2.55168732       0.06888498       0.00000000
Si      -2.87467458      -0.03894396       2.61659754       0.00000000
