10
Lattice="10.86 0.0 0.0 0.0 10.86 0.0 0.0 0.0 10.86" Properties=species:S:1:pos:R:3:initial_magmoms:R:1 pbc="T T T"
Si       1.35750000       1.35750000       1.35750000       0.00000000
Si      -1.35750000       1.35750000      -1.35750000       0.00000000
Si       1.35750000      -1.35750000      -1.35750000       0.00000000
Si      -1.35750000      -1.35750000       1.35750000       0.00000000
Si      -0.05491902      -2.60302254       2.67910770       0.00000000
Si       0.04897860      -2.45952936      -2.91268458       0.00000000
Si       2.71500000       2.71500000       0.00000000       0.00000000
Si      -2.71500000      -2.71500000       0.00000000       0.00000000
Si       2.71500000      -2.71500000       0.00000000       0.00000000
Si       2.71500000       0.00000000       2.71500000       0.00000000
