10
Lattice="16.28999089631971 0.0 0.0 0.0 16.28999089631971 0.0 0.0 0.0 34.529650657227435" Properties=species:S:1:pos:R:3:initial_magmoms:R:1 pbc="T T T"
Si       1.35814617      -1.35820101       1.36043447       0.00000000
Si      -1.35782037       1.35782526       1.36209189       0.00000000
Si       1.36161594       1.36917939      -1.36275141       0.00000000
Si      -1.35509994      -1.37107510      -1.37326569       0.00000000
Si       2.71412577       2.71357680       0.00283143       0.00000000
Si      -2.71585740      -2.71199408       0.00303861       0.00000000
Si      -2.71383418       2.71554789       0.00462698       0.00000000
Si       2.71542897      -2.71655528      -0.00186460       0.00000000
Si      -2.71401663      -0.00081124       2.71807203       0.00000000
Si       0.00117288       2.71437501       2.71803750       0.00000000
