10
Lattice="16.28999089631971 0.0 0.0 0.0 16.28999089631971 0.0 0.0 0.0 34.529650657227435" Properties=species:S:1:pos:R:3:initial_magmoms:R:1 pbc="T T T"
Si      -1.35596331      -1.35781385       1.35722321       0.00000000
Si      -1.35795069       1.35614250      -1.35860439       0.00000000
Si       1.35858600       1.35702216       1.35722321       0.00000000
Si       1.35889551      -1.35891669      -1.36371479       0.00000000
Si      -2.71225242       2.71371852      -0.00041436       0.00000000
Si      -2.71283886      -0.00016290       2.71334146       0.00000000
Si       0.00084708       2.71353933       2.71330694       0.00000000
Si       2.71520091       2.71265967      -0.00055247       0.00000000
Si       0.00092853      -2.71548158       2.71396300       0.00000000
Si      -2.71393029      -2.71563530      -0.00100136       0.00000000
