10
Lattice="16.28999089631971 0.0 0.0 0.0 16.28999089631971 0.0 0.0 0.0 34.529650657227435" Properties=species:S:1:pos:R:3:initial_magmoms:R:1 pbc="T T T"
Si       1.33415100      -1.66022860       1.04704318       0.00000000
Si      -1.36122498      -1.36617781      -1.39631079       0.00000000
Si       1.43068554       1.33085065      -1.43329207       0.00000000
Si      -1.65138246       1.64084935       2.61361978       0.00000000
Si      -3.12976349       1.47949690       0.53558971       0.00000000
Si      -0.05698242       3.17346142       1.82137103       0.00000000
Si       3.25500264       2.13244897      -0.09416241       0.00000000
Si      -2.66891613       0.01329264      -2.84099765       0.00000000
Si       0.06845058      -2.68830679      -2.82742749       0.00000000
Si      -2.31969600      -3.14144572      -0.01798996       0.00000000
