10
Lattice="16.28999089631971 0.0 0.0 0.0 16.28999089631971 0.0 0.0 0.0 34.529650657227435" Properties=species:S:1:pos:R:3:initial_magmoms:R:1 pbc="T T T"
Si      -1.01292849      -0.67790088      -1.96083637       0.00000000
Si       1.57845213      -1.57445361       0.60271539       0.00000000
Si       0.03394836       2.17062458       0.86956068       0.00000000
Si      -2.13961005      -0.64082484       0.71908038       0.00000000
Si       0.71944785      -1.92511215      -2.97842574       0.00000000
Si       0.08197128      -3.60765738       0.39318935       0.00000000
Si      -0.10474470       3.64381073      -0.96548410       0.00000000
Si       2.64979656      -2.46087396      -1.31606384       0.00000000
Si      -3.38571360       1.22759974       1.48536281       0.00000000
Si       3.66940395       0.63498257      -1.14873306       0.00000000
