10
Lattice="16.28999089631971 0.0 0.0 0.0 16.28999089631971 0.0 0.0 0.0 34.529650657227435" Properties=species:S:1:pos:R:3:initial_magmoms:R:1 pbc="T T T"
Si       1.91080071      -1.21572270       0.51721993       0.00000000
Si      -2.03528889      -0.43086073       1.18005147       0.00000000
Si       0.62910351       2.30063670       0.26373762       0.00000000
Si      -0.08741214       0.25868520      -2.68955052       0.00000000
Si      -2.19160773       1.27400832      -1.92578875       0.00000000
Si      -2.72922660       1.61942148       0.40717387       0.00000000
Si       2.20819095       1.07857719      -2.27253570       0.00000000
Si       3.48884559       0.18248058      -0.52005136       0.00000000
Si      -3.13582500      -1.69654925      -0.47184794       0.00000000
Si      -0.28435824      -2.11340663      -2.91464944       0.00000000
