10
Lattice="16.28999089631971 0.0 0.0 0.0 16.28999089631971 0.0 0.0 0.0 34.529650657227435" Properties=species:S:1:pos:R:3:initial_magmoms:R:1 pbc="T T T"
Si      -1.70245161       0.00894321       1.66546957       0.00000000
Si       0.55850265      -2.28680649      -0.40510209       0.00000000
Si       2.04268455       0.77848281       0.98810104       0.00000000
Si      -1.00626588       1.77865623      -1.28129246       0.00000000
Si       1.52238195       3.04404714       1.31699614       0.00000000
Si      -1.35281934      -2.02364154       2.77031542       0.00000000
Si       0.75137625      -3.03896466       2.00655365       0.00000000
Si      -3.36249546       1.27879758      -1.11686217       0.00000000
Si       0.16488738       3.74785659      -0.51725446       0.00000000
Si      -1.15116543       1.41535665       3.45010103       0.00000000
