10
Lattice="16.28999089631971 0.0 0.0 0.0 16.28999089631971 0.0 0.0 0.0 34.529650657227435" Properties=species:S:1:pos:R:3:initial_magmoms:R:1 pbc="T T T"
Si       1.68832818       1.24823428       1.07079959       0.00000000
Si       1.24610355      -1.86842457      -0.76628244       0.00000000
Si      -0.61274835       1.39557733      -1.87962258       0.00000000
Si      -1.60654098      -0.92317059       1.55825495       0.00000000
Si       1.21858974      -3.01297626       1.23405587       0.00000000
Si       3.41966196       0.94302484      -0.61580213       0.00000000
Si      -1.06673436      -3.23842986       1.47414067       0.00000000
Si       3.38571360      -1.22759974      -1.48536281       0.00000000
Si       1.88120178       0.49607611       3.48245533       0.00000000
Si       1.12982553       3.53504077       1.47590168       0.00000000
