10
Lattice="16.28999089631971 0.0 0.0 0.0 16.28999089631971 0.0 0.0 0.0 34.529650657227435" Properties=species:S:1:pos:R:3:initial_magmoms:R:1 pbc="T T T"
Si       1.35953082      -1.35394335      -1.35449536       0.00000000
Si      -1.35790182      -1.35568638       1.35715415       0.00000000
Si       1.35744570       1.35852084       1.35701603       0.00000000
Si      -1.35716877       1.35791811      -1.36316231       0.00000000
Si       2.71226871      -2.71316466       0.00075965       0.00000000
Si      -0.00035838      -2.71353933       2.71461906       0.00000000
Si      -2.71588509      -2.71316466       0.00003453       0.00000000
Si       2.71524978       0.00125433       2.71492983       0.00000000
Si      -2.71629234       0.00102627       2.71410112       0.00000000
Si       2.71433754       2.71733490      -0.00024171       0.00000000
