10
Lattice="16.28999089631971 0.0 0.0 0.0 16.28999089631971 0.0 0.0 0.0 34.529650657227435" Properties=species:S:1:pos:R:3:initial_magmoms:R:1 pbc="T T T"
Si      -1.56499659      -1.75700682       0.01733389       0.00000000
Si      -1.02162735       2.12446035       0.19581776       0.00000000
Si       1.10855079      -0.12831633      -2.11577100       0.00000000
Si       1.00577718      -0.06703335       2.22968438       0.00000000
Si       0.95399127       3.22701642       0.80647497       0.00000000
Si      -0.74580507      -1.29762882       3.34464742       0.00000000
Si      -0.92986578      -3.02888115       1.84609427       0.00000000
Si      -3.56520496      -0.82966599       0.83834586       0.00000000
Si       1.62885339      -2.39388066      -2.44466610       0.00000000
Si      -2.61083088       0.11179827       2.83550744       0.00000000
