10
Lattice="16.28999089631971 0.0 0.0 0.0 16.28999089631971 0.0 0.0 0.0 34.529650657227435" Properties=species:S:1:pos:R:3:initial_magmoms:R:1 pbc="T T T"
Si       0.21812310       2.25513873       0.70074512       0.00000000
Si       2.21019462      -0.75381975       0.42564724       0.00000000
Si      -1.75158225      -1.23059547       1.11496304       0.00000000
Si      -1.00577718       0.06703335      -2.22968438       0.00000000
Si      -1.93564296      -2.96184780      -0.38359010       0.00000000
Si      -0.05178591       3.29404977      -1.42320941       0.00000000
Si      -2.02740453       2.19149370      -2.03386662       0.00000000
Si      -3.61660806       0.17883162       0.60582306       0.00000000
Si       1.94098608      -2.19706488       2.23983610       0.00000000
Si      -2.57077377      -1.68997347      -2.21235048       0.00000000
