10
Lattice="16.28999089631971 0.0 0.0 0.0 16.28999089631971 0.0 0.0 0.0 34.529650657227435" Properties=species:S:1:pos:R:3:initial_magmoms:R:1 pbc="T T T"
Si       0.46450935      -2.30022945       0.46542542       0.00000000
Si       1.95633126       1.04852214      -0.96931689       0.00000000
Si      -0.57954933       0.88752807       2.21235048       0.00000000
Si      -2.05737813       0.35186400      -1.35111146       0.00000000
Si      -2.84659605       2.10540105       0.32848075       0.00000000
Si       2.28058371      -2.07464553       2.10323673       0.00000000
Si      -3.05333244      -1.84741632      -1.19458846       0.00000000
Si       3.87042255      -0.50562531      -0.54663921       0.00000000
Si       1.94096979       0.92048274      -3.40238103       0.00000000
Si       2.51737515       3.24721602      -0.10065399       0.00000000
