10
Lattice="16.28999089631971 0.0 0.0 0.0 16.28999089631971 0.0 0.0 0.0 34.529650657227435" Properties=species:S:1:pos:R:3:initial_magmoms:R:1 pbc="T T T"
Si       1.36772469      -1.31378850      -1.48995526       0.00000000
Si       1.65812652       1.19825982       1.35673979       0.00000000
Si      -1.33995024       1.41739290      -1.50014151       0.00000000
Si      -2.00999052      -0.92492991       1.08423164       0.00000000
Si      -0.07424982       2.44547109       2.37432917       0.00000000
Si       2.64116286       2.75596165      -0.19243385       0.00000000
Si      -2.76962580       2.73952188      -0.06902481       0.00000000
Si       2.73290814      -2.79945279      -0.02147745       0.00000000
Si       0.01534518      -2.65776237      -2.88567905       0.00000000
Si      -2.70229923       0.05807385      -2.88481581       0.00000000
