10
Lattice="16.28999089631971 0.0 0.0 0.0 16.28999089631971 0.0 0.0 0.0 34.529650657227435" Properties=species:S:1:pos:R:3:initial_magmoms:R:1 pbc="T T T"
Si       1.92023262      -1.30937391       0.79583983       0.00000000
Si      -1.26716652      -0.30411801       2.09460431       0.00000000
Si       0.81827928      -1.75120758      -1.55055483       0.00000000
Si       1.49648085       2.03320377       0.20952604       0.00000000
Si       2.56782528       1.14678342      -1.70925319       0.00000000
Si      -0.08197128       3.60765738      -0.39318935       0.00000000
Si       3.30682113      -1.07730657      -1.13785621       0.00000000
Si      -2.24909514       1.82228085       2.32622934       0.00000000
Si       0.50663529      -0.03629412       3.68445390       0.00000000
Si      -2.22158133       2.96683254       0.32589103       0.00000000
