10
Lattice="16.28999089631971 0.0 0.0 0.0 16.28999089631971 0.0 0.0 0.0 34.529650657227435" Properties=species:S:1:pos:R:3:initial_magmoms:R:1 pbc="T T T"
Si       1.01542086      -0.77512707       2.00752048       0.00000000
Si       1.75718601       0.86376096      -1.36944671       0.00000000
Si      -0.95149890      -1.77751995      -1.37134584       0.00000000
Si      -1.74605994       1.70466705       0.05421158       0.00000000
Si      -2.25088704      -0.39963280      -2.73084801       0.00000000
Si       0.50236731       2.31536286      -2.71258181       0.00000000
Si       3.26555856       2.00761218       0.04475045       0.00000000
Si      -1.93453524      -3.33522179       0.17782780       0.00000000
Si      -3.57037704       0.90306873      -1.28491808       0.00000000
Si      -0.90288954       3.60790920      -1.33560763       0.00000000
