10
Lattice="16.28999089631971 0.0 0.0 0.0 16.28999089631971 0.0 0.0 0.0 34.529650657227435" Properties=species:S:1:pos:R:3:initial_magmoms:R:1 pbc="T T T"
Si      -0.45243846      -1.82532708      -1.52199879       0.00000000
Si       0.76113396       1.83821247      -1.38028903       0.00000000
Si       1.46080575      -0.76372407       1.78249062       0.00000000
Si      -2.00471256       0.38307564       1.32642274       0.00000000
Si       2.64393216       2.65072509      -0.17361518       0.00000000
Si      -1.66322529      -0.44528715       3.46308419       0.00000000
Si       0.65752956       0.06747318       3.82764844       0.00000000
Si       1.18201869      -3.13656524       1.97160962       0.00000000
Si      -1.07056251       3.55734504      -1.27859915       0.00000000
Si      -1.46785932      -1.05020001      -3.52951927       0.00000000
