10
Lattice="16.28999089631971 0.0 0.0 0.0 16.28999089631971 0.0 0.0 0.0 34.529650657227435" Properties=species:S:1:pos:R:3:initial_magmoms:R:1 pbc="T T T"
Si      -0.64213551      -1.86528645      -1.31095345       0.00000000
Si      -1.99488969       0.14589324       1.28201759       0.00000000
Si       1.63800837      -0.93152736       1.46215887       0.00000000
Si      -0.41350536       2.15612811      -1.07646246       0.00000000
Si      -2.25098478       1.22152194      -2.34062821       0.00000000
Si      -3.50187759       0.25286967      -0.52716447       0.00000000
Si      -1.60917507       2.15814807       2.41528135       0.00000000
Si      -1.92279015      -0.96918984      -3.06343779       0.00000000
Si       0.75302154      -3.27845861       1.64668543       0.00000000
Si       1.27853694       0.12421125       3.62747995       0.00000000
