10
Lattice="16.28999089631971 0.0 0.0 0.0 16.28999089631971 0.0 0.0 0.0 34.529650657227435" Properties=species:S:1:pos:R:3:initial_magmoms:R:1 pbc="T T T"
Si       1.39598784       0.68279535      -1.76667603       0.00000000
Si      -0.48714430      -2.32046882       0.44377532       0.00000000
Si       1.44528138       0.79350219       1.82741372       0.00000000
Si      -2.14207703       0.97332750      -0.87356612       0.00000000
Si      -2.17780100      -1.07172073       2.01873334       0.00000000
Si      -0.36931385      -0.01510735       3.17347491       0.00000000
Si       0.72114201       3.01296582      -1.84557633       0.00000000
Si       0.32462712      -0.53060277      -3.56087221       0.00000000
Si      -1.45718123       3.28851117      -0.81493474       0.00000000
Si      -2.04226820       0.07006655      -3.09451449       0.00000000
