10
Lattice="16.28999089631971 0.0 0.0 0.0 16.28999089631971 0.0 0.0 0.0 34.529650657227435" Properties=species:S:1:pos:R:3:initial_magmoms:R:1 pbc="T T T"
Si       1.91756106       0.76339827      -1.15900011       0.00000000
Si       1.42436502      -1.24901946       1.47441691       0.00000000
Si      -1.27026162       1.47145941       1.45708647       0.00000000
Si      -1.38370518      -1.20301650      -1.70437557       0.00000000
Si      -2.64539826      -2.64637566      -0.10819527       0.00000000
Si       2.74170474      -2.64837933       0.03209188       0.00000000
Si       2.70195714       2.71420722       0.04649075       0.00000000
Si      -2.76726375       2.66082489      -0.02711960       0.00000000
Si       0.09122400      -2.59133175       2.84768605       0.00000000
Si      -2.62562220       0.12145824       2.84295549       0.00000000
