10
Lattice="16.28999089631971 0.0 0.0 0.0 16.28999089631971 0.0 0.0 0.0 34.529650657227435" Properties=species:S:1:pos:R:3:initial_magmoms:R:1 pbc="T T T"
Si       1.35669636      -1.35601218       1.36012370       0.00000000
Si      -1.35773892      -1.35721764      -1.35801739       0.00000000
Si       1.35754344       1.35920502      -1.35698150       0.00000000
Si      -1.35415512       1.36409202       1.36122865       0.00000000
Si      -2.72086983      -0.02081862       2.70156685       0.00000000
Si       0.01221750      -2.70956457       2.71323788       0.00000000
Si       2.71362078      -2.71375110      -0.00075965       0.00000000
Si       0.00000000      -2.71373481      -2.71410112       0.00000000
Si      -2.71482624       0.00125433      -2.71417018       0.00000000
Si      -2.71709055      -2.71233387      -0.00269331       0.00000000
