10
Lattice="16.28999089631971 0.0 0.0 0.0 16.28999089631971 0.0 0.0 0.0 34.529650657227435" Properties=species:S:1:pos:R:3:initial_magmoms:R:1 pbc="T T T"
Si      -0.81140490      -1.77332940      -1.37231267       0.00000000
Si       0.48878145      -0.77369355       2.21421509       0.00000000
Si       1.85842836       0.97257816      -1.22991231       0.00000000
Si      -1.90705401       1.58302962      -0.00890865       0.00000000
Si      -2.13923538      -0.37712979      -2.76095788       0.00000000
Si       0.58445262       2.34927864      -2.73392115       0.00000000
Si      -2.90066256       0.52158951       2.24712186       0.00000000
Si      -1.60829541      -1.29174813       3.14765565       0.00000000
Si      -0.76826898       3.57581790      -1.23709449       0.00000000
Si       2.86777305       2.75160906      -0.10476302       0.00000000
