10
Lattice="16.28999089631971 0.0 0.0 0.0 16.28999089631971 0.0 0.0 0.0 34.529650657227435" Properties=species:S:1:pos:R:3:initial_magmoms:R:1 pbc="T T T"
Si      -1.34806429      -1.33175637       1.37960879       0.00000000
Si       1.36603053       1.38352599       1.37211585       0.00000000
Si      -1.39893470       1.29958362      -1.42151745       0.00000000
Si       1.33421616      -1.39921326      -1.46619539       0.00000000
Si       0.55662930       2.02639455      -2.63790657       0.00000000
Si       2.33127819       0.41622579      -2.92812089       0.00000000
Si      -2.69421416      -2.67867873      -0.00011395       0.00000000
Si       2.72738583      -2.67812487       0.01223041       0.00000000
Si       0.00794952      -2.68947900       2.73707371       0.00000000
Si      -2.70567007       0.02223585       2.73593423       0.00000000
