10
Lattice="16.28999089631971 0.0 0.0 0.0 16.28999089631971 0.0 0.0 0.0 34.529650657227435" Properties=species:S:1:pos:R:3:initial_magmoms:R:1 pbc="T T T"
Si      -1.38658851      -0.23206734       1.93369605       0.00000000
Si      -0.73899585       2.22408999      -0.57139698       0.00000000
Si       0.26261109      -0.39858372      -2.37950862       0.00000000
Si      -2.48854185      -0.67390101      -0.41269862       0.00000000
Si       1.74869892      -0.77840136       2.32139518       0.00000000
Si      -3.30682113       1.07730657       1.13785621       0.00000000
Si       1.57832181       3.27569094      -0.57923521       0.00000000
Si       2.04147909      -2.06206965      -2.47964466       0.00000000
Si       2.15708922      -2.85013098       1.35180205       0.00000000
Si      -1.81034028       3.11051034       1.34738225       0.00000000
