10
Lattice="16.28999089631971 0.0 0.0 0.0 16.28999089631971 0.0 0.0 0.0 34.529650657227435" Properties=species:S:1:pos:R:3:initial_magmoms:R:1 pbc="T T T"
Si       1.19754306       0.66982851      -1.87765439       0.00000000
Si      -2.03362731      -0.40545810      -1.15971350       0.00000000
Si      -0.53651115       1.92590154       1.36616639       0.00000000
Si       1.18985418      -1.97426655       0.86683283       0.00000000
Si      -0.08638587      -2.35936215       2.84842153       0.00000000
Si       1.77161895      -1.31445639      -2.99617399       0.00000000
Si       3.03989319       1.92681378      -1.02946758       0.00000000
Si      -2.35618560       1.34004798      -2.70536511       0.00000000
Si      -3.83285781      -0.14397102       0.41749824       0.00000000
Si      -1.69347582      -2.28007872      -2.65971689       0.00000000
