10
Lattice="16.28999089631971 0.0 0.0 0.0 16.28999089631971 0.0 0.0 0.0 34.529650657227435" Properties=species:S:1:pos:R:3:initial_magmoms:R:1 pbc="T T T"
Si       2.16775917      -0.76750335       0.21829657       0.00000000
Si      -0.57407589       1.98428490       1.11851960       0.00000000
Si       0.42108021       0.83509056      -2.21010606       0.00000000
Si      -1.34052039      -1.96501383       0.53493365       0.00000000
Si      -1.98376362       2.67025680      -0.71006813       0.00000000
Si       0.82947051      -1.23663906      -3.17969919       0.00000000
Si       2.31467868      -2.22138585      -1.59782595       0.00000000
Si      -3.46509477      -0.96562233       0.33645710       0.00000000
Si      -1.77161895       1.31445639       2.99617399       0.00000000
Si      -3.15209871      -0.81655254      -2.05693244       0.00000000
