10
Lattice="16.28999089631971 0.0 0.0 0.0 16.28999089631971 0.0 0.0 0.0 34.529650657227435" Properties=species:S:1:pos:R:3:initial_magmoms:R:1 pbc="T T T"
Si      -1.66687425      -1.24769997      -0.99959942       0.00000000
Si      -0.88254333       0.47729700       2.10569148       0.00000000
Si       2.20907061      -0.68458725      -0.49702007       0.00000000
Si       0.31480425       1.99853865      -1.28464184       0.00000000
Si      -0.53110287      -1.26827424      -3.03015119       0.00000000
Si       0.94690512       0.64637091      -3.18439522       0.00000000
Si       3.44424357       1.23504264       0.33576651       0.00000000
Si       0.88221753       1.53831357       3.27660813       0.00000000
Si       2.40611445      -2.96254827      -0.14554256       0.00000000
Si      -3.58096554       0.30644748      -1.42227711       0.00000000
