10
Lattice="16.28999089631971 0.0 0.0 0.0 16.28999089631971 0.0 0.0 0.0 34.529650657227435" Properties=species:S:1:pos:R:3:initial_magmoms:R:1 pbc="T T T"
Si       0.34282305       2.21703642      -0.63513875       0.00000000
Si      -2.14404093      -0.01575243       1.00087701       0.00000000
Si      -0.73044360      -1.28883222      -1.88773706       0.00000000
Si       1.40968773      -0.68597190       1.82858773       0.00000000
Si       2.40484383      -1.83516624      -1.50003792       0.00000000
Si       1.98376362      -2.67025680       0.71006813       0.00000000
Si      -1.15419537       2.05374546      -2.47405085       0.00000000
Si      -0.37004364       3.32326656       1.29313614       0.00000000
Si      -1.82148264      -1.76125851       2.54652863       0.00000000
Si      -2.28195207       2.12014350       1.97071185       0.00000000
