10
Lattice="16.28999089631971 0.0 0.0 0.0 16.28999089631971 0.0 0.0 0.0 34.529650657227435" Properties=species:S:1:pos:R:3:initial_magmoms:R:1 pbc="T T T"
Si       1.42001559      -1.24981767       1.51371167       0.00000000
Si      -1.45888353       1.50816078       1.39848616       0.00000000
Si       0.52950645       1.62078986      -1.86708831       0.00000000
Si      -0.50158539      -2.07057303      -1.44941743       0.00000000
Si      -1.79861148       1.32247107      -2.35457819       0.00000000
Si      -2.30221683      -0.97451667      -2.49722026       0.00000000
Si       2.62785393      -2.83406904       0.17099093       0.00000000
Si       1.24504470       3.71810195      -0.61272899       0.00000000
Si      -2.56214007       0.12698055       3.04388160       0.00000000
Si       0.06582789      -2.53079811       3.11183254       0.00000000
