10
Lattice="16.28999089631971 0.0 0.0 0.0 16.28999089631971 0.0 0.0 0.0 34.529650657227435" Properties=species:S:1:pos:R:3:initial_magmoms:R:1 pbc="T T T"
Si       0.39364785       1.02920220      -2.07471522       0.00000000
Si       1.16571240      -2.03889875      -0.12385793       0.00000000
Si      -2.35002798      -0.50217183      -0.29574662       0.00000000
Si       0.48648456       1.48307418       1.86484389       0.00000000
Si      -1.75744665       2.26378872       1.87872481       0.00000000
Si      -3.15330417       0.32902542       1.74941120       0.00000000
Si       0.75984705      -2.75179544      -2.36597299       0.00000000
Si       0.97494021      -0.67342860      -3.59502206       0.00000000
Si      -1.16690157       2.91227733      -2.25185243       0.00000000
Si       1.16675496       0.10218717       3.71076551       0.00000000
