10
Lattice="16.28999089631971 0.0 0.0 0.0 16.28999089631971 0.0 0.0 0.0 34.529650657227435" Properties=species:S:1:pos:R:3:initial_magmoms:R:1 pbc="T T T"
Si       0.60450561      -1.53489267      -1.72040628       0.00000000
Si       0.39700359       2.21788350      -0.91821298       0.00000000
Si       2.07982575      -0.06849945       1.26295721       0.00000000
Si      -2.21783463      -0.38434626       0.93167955       0.00000000
Si       3.29668875       0.38713185      -0.79407882       0.00000000
Si       1.07784414      -3.48895052      -0.49722725       0.00000000
Si       2.52970668      -0.66463200      -2.81648159       0.00000000
Si       2.76633522       2.64091851      -0.77995618       0.00000000
Si      -3.85584300       0.54718110      -0.53047932       0.00000000
Si       2.15528103       1.80116901       2.81706859       0.00000000
