10
Lattice="16.28999089631971 0.0 0.0 0.0 16.28999089631971 0.0 0.0 0.0 34.529650657227435" Properties=species:S:1:pos:R:3:initial_magmoms:R:1 pbc="T T T"
Si      -1.14774453       1.77753222       0.98889522       0.00000000
Si      -0.97230123       0.81963135      -1.99239649       0.00000000
Si       2.36933163       0.42303501       0.13825680       0.00000000
Si      -0.39700359      -2.21788350       0.91821298       0.00000000
Si       2.89968516      -1.83075165       0.12413416       0.00000000
Si       0.42306759       2.72282463      -2.19619060       0.00000000
Si       0.64581705       2.70482418       2.19301387       0.00000000
Si       1.68282216      -2.28638295       2.18117019       0.00000000
Si       2.49263064       1.30419369       2.32754146       0.00000000
Si       0.20750202      -3.75277617      -0.80219329       0.00000000
