10
Lattice="16.28999089631971 0.0 0.0 0.0 16.28999089631971 0.0 0.0 0.0 34.529650657227435" Properties=species:S:1:pos:R:3:initial_magmoms:R:1 pbc="T T T"
Si       0.73435320       1.72090818      -1.40774011       0.00000000
Si      -1.99875042       0.91588896       1.02573838       0.00000000
Si      -0.07545528      -1.86966846      -1.55411139       0.00000000
Si       1.47707850      -0.48984030       1.96563599       0.00000000
Si       0.79218270      -2.80502397       1.90700461       0.00000000
Si      -1.11246039       3.12153867      -1.54226771       0.00000000
Si       0.61105419       0.83974950      -3.59702478       0.00000000
Si       0.89199153      -3.70828492      -0.31394376       0.00000000
Si       3.65540174      -0.76538565       0.93499440       0.00000000
Si      -1.37352393       2.62710459       2.48751742       0.00000000
