10
Lattice="16.28999089631971 0.0 0.0 0.0 16.28999089631971 0.0 0.0 0.0 34.529650657227435" Properties=species:S:1:pos:R:3:initial_magmoms:R:1 pbc="T T T"
Si       1.35680933       1.35580041      -1.35608373       0.00000000
Si       1.35826222      -1.35718506       1.35725774       0.00000000
Si      -1.35819504       1.35791811       1.35722321       0.00000000
Si      -1.35904212      -1.35889551      -1.35784474       0.00000000
Si       2.71375992      -0.00159642       2.71292711       0.00000000
Si      -0.00099369       2.71277370       2.71530966       0.00000000
Si       0.00058644      -2.71394658       2.71548230       0.00000000
Si       2.71457279      -2.71489140      -0.00017265       0.00000000
Si       2.71456790       2.71495656       0.00006906       0.00000000
Si       0.00397476       2.71239903      -2.71751956       0.00000000
