10
Lattice="16.28999089631971 0.0 0.0 0.0 16.28999089631971 0.0 0.0 0.0 34.529650657227435" Properties=species:S:1:pos:R:3:initial_magmoms:R:1 pbc="T T T"
Si      -1.35850455       1.35617508      -1.36540674       0.00000000
Si       1.35949824      -1.35848826      -1.36416367       0.00000000
Si       1.36407573       1.34788347       1.38622813       0.00000000
Si      -1.35980775      -1.36357074       1.39202911       0.00000000
Si      -2.71173114       2.71204065      -0.00676782       0.00000000
Si      -2.71480995      -2.71697652      -0.00490321       0.00000000
Si       2.71773754       2.71485882      -0.00859789       0.00000000
Si       0.00071676       2.71337643      -2.72242277       0.00000000
Si      -2.71396287      -0.00175932      -2.72200841       0.00000000
Si       2.71717402      -0.00172674      -2.72238824       0.00000000
