10
Lattice="16.28999089631971 0.0 0.0 0.0 16.28999089631971 0.0 0.0 0.0 34.529650657227435" Properties=species:S:1:pos:R:3:initial_magmoms:R:1 pbc="T T T"
Si      -1.74933423      -1.55722626      -0.03687769       0.00000000
Si       1.86490431      -1.40556636      -0.23165956       0.00000000
Si      -0.60852924       1.21645575       1.92416586       0.00000000
Si      -0.04108338       1.90664676      -1.38857615       0.00000000
Si       1.08027135      -3.14665785       1.23819943       0.00000000
Si       3.51323891       0.03603348       0.73448061       0.00000000
Si       0.90552852       3.02005197       1.73711864       0.00000000
Si      -1.24370892      -2.87497323       1.82233786       0.00000000
Si      -1.71799227       1.52112762      -2.96102279       0.00000000
Si      -1.60241472      -3.01110876      -1.85300021       0.00000000
