10
Lattice="16.28999089631971 0.0 0.0 0.0 16.28999089631971 0.0 0.0 0.0 34.529650657227435" Properties=species:S:1:pos:R:3:initial_magmoms:R:1 pbc="T T T"
Si       0.40586535       0.71289668       2.24211506       0.00000000
Si       0.21509316       2.07836684      -1.22904907       0.00000000
Si       1.77879211      -1.53345915      -0.69936394       0.00000000
Si      -2.26162215      -1.15287588       0.47312554       0.00000000
Si       1.86826167      -2.69485470       1.31948228       0.00000000
Si      -0.75984705       2.75179544       2.36597299       0.00000000
Si      -0.36619920       3.78099764       0.29125777       0.00000000
Si      -0.23162751      -0.98824914       3.78528054       0.00000000
Si      -0.10010205      -3.04904817       2.56790250       0.00000000
Si      -0.95858505       2.11187537      -3.24879306       0.00000000
