10
Lattice="16.28999089631971 0.0 0.0 0.0 16.28999089631971 0.0 0.0 0.0 34.529650657227435" Properties=species:S:1:pos:R:3:initial_magmoms:R:1 pbc="T T T"
Si      -0.95211792      -1.38017025       1.67061449       0.00000000
Si      -0.80835867       1.64361213      -1.52483023       0.00000000
Si       1.21002120      -1.42500033      -1.47976901       0.00000000
Si       1.60845831       1.17978696       1.31361223       0.00000000
Si       0.96728391      -2.62575252       2.04277527       0.00000000
Si       3.41359135      -1.13062374      -0.56386951       0.00000000
Si       0.80317845       3.38367735      -1.09234611       0.00000000
Si       3.55083134       1.15714386      -0.03339019       0.00000000
Si      -0.24798267      -3.36774573      -1.70959849       0.00000000
Si       1.18058517      -0.38522592      -3.60769445       0.00000000
