10
Lattice="16.28999089631971 0.0 0.0 0.0 16.28999089631971 0.0 0.0 0.0 34.529650657227435" Properties=species:S:1:pos:R:3:initial_magmoms:R:1 pbc="T T T"
Si       0.63513081      -1.27187433       1.82876038       0.00000000
Si      -0.55128618      -1.40641344      -1.78463146       0.00000000
Si      -2.00020837       0.92734083       0.82101196       0.00000000
Si       1.56499659       1.75700682      -0.01733389       0.00000000
Si       0.81919152       0.45937800       3.32731353       0.00000000
Si      -0.20165391      -3.43899819      -0.67978561       0.00000000
Si      -1.04583429       1.86880509       2.81817354       0.00000000
Si      -0.73927278      -3.09358503       1.65317701       0.00000000
Si      -3.16916153       1.45660293      -1.13115746       0.00000000
Si      -2.80195054      -0.70120305      -2.31821845       0.00000000
