10
Lattice="16.28999089631971 0.0 0.0 0.0 16.28999089631971 0.0 0.0 0.0 34.529650657227435" Properties=species:S:1:pos:R:3:initial_magmoms:R:1 pbc="T T T"
Si       0.59062050       0.56464398      -2.24874476       0.00000000
Si       2.25066436      -0.70521039       0.53358699       0.00000000
Si      -1.66182616      -1.79496252       0.22319979       0.00000000
Si      -0.36721099       2.15780598       1.18706099       0.00000000
Si       0.80174216       1.62854388       3.13923041       0.00000000
Si       2.80195054       0.70120305       2.31821845       0.00000000
Si      -0.94773772       2.21170959      -3.07030919       0.00000000
Si      -0.98155576      -3.17584953       2.06912141       0.00000000
Si       0.41742196       3.89889747      -0.28279800       0.00000000
Si       2.94685009       1.06450263      -2.41317504       0.00000000
