10
Lattice="16.28999089631971 0.0 0.0 0.0 16.28999089631971 0.0 0.0 0.0 34.529650657227435" Properties=species:S:1:pos:R:3:initial_magmoms:R:1 pbc="T T T"
Si      -0.68489580      -2.31518367      -0.05863138       0.00000000
Si       2.17832323      -0.27554535      -1.03064159       0.00000000
Si      -1.47707850       0.48984030      -1.96563599       0.00000000
Si      -0.70185369       1.07282682       2.51835242       0.00000000
Si       1.45718123      -3.28851117       0.81493474       0.00000000
Si      -3.47582892       1.40572926      -0.93989762       0.00000000
Si       1.49098297       3.44390148       1.11268408       0.00000000
Si       2.85316906      -2.60571582      -0.95174129       0.00000000
Si      -0.58508697      -3.21844462      -2.27957975       0.00000000
Si      -3.19528254      -2.42328411       0.21947058       0.00000000
