10
Lattice="16.28999089631971 0.0 0.0 0.0 16.28999089631971 0.0 0.0 0.0 34.529650657227435" Properties=species:S:1:pos:R:3:initial_magmoms:R:1 pbc="T T T"
Si      -1.35702705       1.35742297      -1.35770662       0.00000000
Si       1.35752715      -1.35724593      -1.35763756       0.00000000
Si       1.35954711       1.35575162       1.35749944       0.00000000
Si      -1.35929787      -1.35773463       1.35622185       0.00000000
Si       2.71388142       0.00129120       2.71247822       0.00000000
Si      -2.71256912      -0.00135497       2.71406659       0.00000000
Si      -2.71379608      -0.00055980      -2.71451547       0.00000000
Si       2.71494027      -2.71412148       0.00013812       0.00000000
Si      -2.71461158      -2.71495227      -0.00017265       0.00000000
Si      -0.00083079       2.71605947      -2.71368676       0.00000000
