10
Lattice="16.28999089631971 0.0 0.0 0.0 16.28999089631971 0.0 0.0 0.0 34.529650657227435" Properties=species:S:1:pos:R:3:initial_magmoms:R:1 pbc="T T T"
Si      -1.35668496       1.35814617      -1.35684338       0.00000000
Si      -1.35749294      -1.35840681       1.35601467       0.00000000
Si       1.35839052      -1.35671265      -1.35694697       0.00000000
Si       1.35716877       1.35726651       1.35808645       0.00000000
Si      -0.00809613      -2.70884781       2.71113157       0.00000000
Si      -2.71242712       0.00259011       2.71413565       0.00000000
Si      -2.71299064      -2.71399545       0.00034530       0.00000000
Si      -2.71444352      -0.00100998      -2.71299617       0.00000000
Si       0.00040725      -2.71419093      -2.71406659       0.00000000
Si      -0.00128691       2.71425609      -2.71423924       0.00000000
