10
Lattice="16.28999089631971 0.0 0.0 0.0 16.28999089631971 0.0 0.0 0.0 34.529650657227435" Properties=species:S:1:pos:R:3:initial_magmoms:R:1 pbc="T T T"
Si      -1.23689970       1.45257930      -1.38650437       0.00000000
Si       0.84180204       1.83881520       1.22127990       0.00000000
Si       1.50273621      -1.24597323      -1.38798914       0.00000000
Si      -1.22362498      -1.56532239       1.75928668       0.00000000
Si       0.12429270       1.28042658       3.41702161       0.00000000
Si      -2.57154142      -2.69366553       0.12883020       0.00000000
Si      -2.56614292       0.10798641      -2.75343041       0.00000000
Si       0.13818807      -2.60345151      -2.75643449       0.00000000
Si      -2.73138407       2.68144803       0.05020614       0.00000000
Si       2.58401754      -2.93081535      -0.14972065       0.00000000
