10
Lattice="16.28999089631971 0.0 0.0 0.0 16.28999089631971 0.0 0.0 0.0 34.529650657227435" Properties=species:S:1:pos:R:3:initial_magmoms:R:1 pbc="T T T"
Si      -1.86490431       1.40556636       0.23165956       0.00000000
Si       1.64833460       1.44159984       0.96614017       0.00000000
Si      -0.78463296      -1.74109149       1.46985899       0.00000000
Si       1.05668017       1.56502917      -2.66489634       0.00000000
Si       2.85078095       1.32688566      -1.06057881       0.00000000
Si      -1.36515969      -1.68718788      -2.78751120       0.00000000
Si      -3.61423854      -0.15165990       0.19478187       0.00000000
Si       0.17319854      -3.33425349      -1.96594676       0.00000000
Si      -0.41742196      -3.89889747       0.28279800       0.00000000
Si      -1.90598769       3.31221312      -1.15691659       0.00000000
