10
Lattice="16.28999089631971 0.0 0.0 0.0 16.28999089631971 0.0 0.0 0.0 34.529650657227435" Properties=species:S:1:pos:R:3:initial_magmoms:R:1 pbc="T T T"
Si       2.08122832      -0.99680139      -0.32326677       0.00000000
Si       0.13723999       2.28776760       0.53047932       0.00000000
Si      -0.26743195      -0.73360386       2.23451853       0.00000000
Si      -2.20357015      -0.29437659      -0.91589950       0.00000000
Si      -1.80513304       2.31041070       1.87748174       0.00000000
Si       1.57912165      -3.20551362       0.21953964       0.00000000
Si      -3.41359135       1.13062374       0.56386951       0.00000000
Si       3.54543868      -0.24711930       1.42307129       0.00000000
Si      -2.23300618       0.74539782      -3.04382494       0.00000000
Si      -2.44630744      -1.49512878       2.60664478       0.00000000
