10
Lattice="16.28999089631971 0.0 0.0 0.0 16.28999089631971 0.0 0.0 0.0 34.529650657227435" Properties=species:S:1:pos:R:3:initial_magmoms:R:1 pbc="T T T"
Si      -0.99595431      -2.19928032       0.15652299       0.00000000
Si       0.16273710       1.03900878      -2.19173627       0.00000000
Si       2.05737813      -0.35186400       1.35111146       0.00000000
Si      -0.78921792       1.75353705       1.67959221       0.00000000
Si      -2.30370248       0.03293838       2.32512439       0.00000000
Si      -2.87544075      -1.76396265      -1.20090739       0.00000000
Si      -1.94761611      -2.24538102       2.24933176       0.00000000
Si       2.03115123       0.15692157      -3.30034585       0.00000000
Si       1.47782880       0.53566407       3.56346194       0.00000000
Si      -3.65013353       0.55252422      -1.38028903       0.00000000
