10
Lattice="16.28999089631971 0.0 0.0 0.0 16.28999089631971 0.0 0.0 0.0 34.529650657227435" Properties=species:S:1:pos:R:3:initial_magmoms:R:1 pbc="T T T"
Si       1.34899119       1.35588186      -1.39126946       0.00000000
Si      -1.36234899      -1.35931905      -1.38467429       0.00000000
Si      -1.42967556       1.32212898       1.43111670       0.00000000
Si       1.33995024      -1.41739290       1.50014151       0.00000000
Si      -0.67004028      -2.34232281       2.58437315       0.00000000
Si      -2.38814658      -0.45313893       2.80943754       0.00000000
Si       2.68172496       2.71645591      -0.05179450       0.00000000
Si       2.70767493      -2.73118140       0.01018625       0.00000000
Si      -2.73736671       2.70159943      -0.01357016       0.00000000
Si       2.70625770      -0.00200367      -2.74642089       0.00000000
