10
Lattice="16.290000149 0.0 0.0 0.0 16.290000149 0.0 0.0 0.0 29.1751946751" Properties=species:S:1:pos:R:3:initial_magmoms:R:1 pbc="T T T"
Si      -1.39807297       1.42715062      -1.22410364       0.00000000
Si      -1.32804226      -1.38181555       1.37533035       0.00000000
Si       1.18887679      -1.48199905      -1.43113082       0.00000000
Si       1.31206177       1.44837649       1.36500233       0.00000000
H        3.24048828       1.71989822      -0.51327920       0.00000000
Si       0.00576666       2.65932623      -2.64403119       0.00000000
Si       2.66541869      -2.68918580       0.02132707       0.00000000
Si       2.52081236      -0.15807816      -2.83244460       0.00000000
Si      -2.90535411       0.14444343      -2.51107983       0.00000000
Si       2.73237060       0.07610688       2.70141588       0.00000000
