10
Lattice="16.290000149 0.0 0.0 0.0 16.290000149 0.0 0.0 0.0 29.1751946751" Properties=species:S:1:pos:R:3:initial_magmoms:R:1 pbc="T T T"
Si       1.34789000      -1.33594291       1.37531868       0.00000000
Si      -1.27213303       1.36041049       1.42275754       0.00000000
Si       1.34225366       1.36914193      -1.36239407       0.00000000
Si      -1.37967505      -1.36137160      -1.33310217       0.00000000
Si       2.66298171       0.13012452       2.65348396       0.00000000
Si       0.01717781      -2.69784883      -2.68143379       0.00000000
Si      -2.66348996       2.71735121       0.07325891       0.00000000
Si      -2.68352666       0.01969461      -2.70745807       0.00000000
Si      -0.06216590      -2.62884927       2.76545835       0.00000000
Si       2.72071347       0.02379969      -2.71977000       0.00000000
