10
Lattice="16.290000149 0.0 0.0 0.0 16.290000149 0.0 0.0 0.0 29.1751946751" Properties=species:S:1:pos:R:3:initial_magmoms:R:1 pbc="T T T"
H       -0.15283278       0.79540813       1.27609384       0.00000000
Si       1.08238906       1.16963830      -1.70359797       0.00000000
Si      -2.20972223       0.07995132      -0.80856135       0.00000000
Si       0.86213197      -2.07599762       0.79146468       0.00000000
H       -1.46054512      -1.87940990       1.70914125       0.00000000
H       -1.54776178       2.82968706       0.81241247       0.00000000
Si      -2.74752030      -1.91684432       0.89419054       0.00000000
Si       1.95911687      -0.60947407      -2.98815261       0.00000000
Si       0.72052300      -1.65552014       3.14864536       0.00000000
Si      -2.74211202       2.46280367      -0.08023179       0.00000000
