10
Lattice="16.290000149 0.0 0.0 0.0 16.290000149 0.0 0.0 0.0 29.1751946751" Properties=species:S:1:pos:R:3:initial_magmoms:R:1 pbc="T T T"
Si       0.64988956      -0.42415902       2.13362575       0.00000000
Si      -1.07085574      -1.76147030      -1.06168533       0.00000000
Si      -1.70774588       1.59339007      -0.01114492       0.00000000
Si       1.78531886       0.58570696      -1.44636028       0.00000000
Si      -0.31819257       3.02835990      -1.19133990       0.00000000
H        3.09744579       1.10398960      -0.51342508       0.00000000
H       -0.55166085      -3.04134303       1.32779228       0.00000000
Si      -2.00042831      -0.72003430      -2.89572560       0.00000000
Si       0.75691486       1.92295307      -3.05904834       0.00000000
Si      -1.25582869      -1.21653721       3.25704580       0.00000000
