10
Lattice="16.290000149 0.0 0.0 0.0 16.290000149 0.0 0.0 0.0 29.1751946751" Properties=species:S:1:pos:R:3:initial_magmoms:R:1 pbc="T T T"
Si       1.36523233      -1.33876108       1.36283169       0.00000000
Si       1.35301483       1.37292121      -1.34395534       0.00000000
Si      -1.35422029       1.35469270       1.36379448       0.00000000
Si      -1.33472116      -1.40120065      -1.34296339       0.00000000
Si       2.70946685      -2.67064778      -0.02252325       0.00000000
Si      -2.76812715      -0.08219934      -2.62778061       0.00000000
Si       0.01355328      -2.73020402       2.68971955       0.00000000
Si       0.00285075       2.71686251      -2.70521158       0.00000000
Si      -2.72647362       2.70140330       0.02360273       0.00000000
Si      -2.71251308      -2.72018567       0.02147294       0.00000000
