10
Lattice="16.290000149 0.0 0.0 0.0 16.290000149 0.0 0.0 0.0 29.1751946751" Properties=species:S:1:pos:R:3:initial_magmoms:R:1 pbc="T T T"
H        1.31212693       0.51828264       0.93293520       0.00000000
Si       1.23255028      -1.84575476      -0.67088360       0.00000000
Si      -1.02840400       1.33724611      -1.61268806       0.00000000
Si      -1.78531886      -0.58570696       1.44636028       0.00000000
H        0.96490558       1.26592849      -2.67288546       0.00000000
Si      -2.10351143       2.44265294       0.25502038       0.00000000
Si      -1.79344757      -0.70718149      -2.62095361       0.00000000
Si       2.47593341       1.08479998       1.97752387       0.00000000
Si      -0.30017583      -2.57334761      -2.27201829       0.00000000
Si      -2.85617460      -2.34717725       0.38467494       0.00000000
