10
Lattice="16.290000149 0.0 0.0 0.0 16.290000149 0.0 0.0 0.0 29.1751946751" Properties=species:S:1:pos:R:3:initial_magmoms:R:1 pbc="T T T"
Si      -1.36677988      -1.34814412      -1.34141710       0.00000000
Si      -1.36559071       1.34783461       1.34876925       0.00000000
Si       1.32603859      -1.38292327       1.35930150       0.00000000
Si       1.38365991       1.33863076      -1.36128541       0.00000000
Si       0.07656300      -2.68125420      -2.62547577       0.00000000
Si       2.69629150      -0.01366731       2.68347606       0.00000000
Si      -0.00609246       2.71221986       2.67994586       0.00000000
Si      -2.69449634       2.71428869      -0.02809571       0.00000000
Si       0.05395248       2.74077624      -2.67834122       0.00000000
Si      -2.72086985      -0.02964780       2.70454055       0.00000000
