10
Lattice="16.290000149 0.0 0.0 0.0 16.290000149 0.0 0.0 0.0 29.1751946751" Properties=species:S:1:pos:R:3:initial_magmoms:R:1 pbc="T T T"
Si       1.16657578      -0.97594042      -0.13715259       0.00000000
Si      -1.73180621       2.01990300      -0.87554759       0.00000000
Si      -1.68925673      -0.40511276       2.22107840       0.00000000
Si      -0.19908009       2.74749586       0.72558709       0.00000000
Si      -0.13955643       1.30700373       2.66296589       0.00000000
Si       0.36022077      -2.91764491       0.84966919       0.00000000
Si      -2.95078692       0.70233521       0.62516607       0.00000000
Si       3.02082903      -0.03681703       0.97763160       0.00000000
Si       1.44405964      -1.67566272      -2.35881449       0.00000000
Si      -1.10772001       0.94034840      -2.91398927       0.00000000
