10
Lattice="16.290000149 0.0 0.0 0.0 16.290000149 0.0 0.0 0.0 29.1751946751" Properties=species:S:1:pos:R:3:initial_magmoms:R:1 pbc="T T T"
Si       1.46004013      -1.19138545      -1.36994373       0.00000000
Si      -1.32215506      -1.48773313       1.22244445       0.00000000
Si       1.46127817       1.35057133       1.25167799       0.00000000
Si      -1.26423596       1.08747154      -1.65717352       0.00000000
H       -2.52316480       2.05105763      -1.35255531       0.00000000
Si      -2.66540240      -0.03360627       2.52419496       0.00000000
Si       0.12803940      -2.56028303      -2.71961741       0.00000000
Si       0.14243976       2.65256588       2.68375118       0.00000000
Si       0.08145000      -2.81774649       2.58537242       0.00000000
Si       2.79215490      -0.05176962       2.62042642       0.00000000
