10
Lattice="16.290000149 0.0 0.0 0.0 16.290000149 0.0 0.0 0.0 29.1751946751" Properties=species:S:1:pos:R:3:initial_magmoms:R:1 pbc="T T T"
Si      -1.26153019       1.10744797      -1.59591232       0.00000000
Si      -1.89886016      -0.01759809       1.34033762       0.00000000
Si       1.54970029       1.71211648       0.44188750       0.00000000
Si       0.44593875      -2.28961979       0.30631037       0.00000000
H        1.68925673       0.40511276      -2.22107840       0.00000000
H       -2.07935336       1.37131339       1.94954486       0.00000000
Si      -1.07344585      -1.26233980       3.05627086       0.00000000
Si       2.04947750      -2.51253216      -1.37140920       0.00000000
Si       0.82981261       2.32370825       2.63162794       0.00000000
Si      -2.59854824       2.65118612      -0.43993276       0.00000000
