10
Lattice="16.290000149 0.0 0.0 0.0 16.290000149 0.0 0.0 0.0 29.1751946751" Properties=species:S:1:pos:R:3:initial_magmoms:R:1 pbc="T T T"
Si       1.21523401      -1.41504715       1.44976881       0.00000000
Si      -1.47900169       1.29981788       1.33952071       0.00000000
Si      -1.49869630      -1.24771627      -1.37067982       0.00000000
Si       1.62191386       1.48648043      -0.93716560       0.00000000
Si       2.55995723      -2.76912084       0.10797740       0.00000000
H        1.17877699      -1.11601162      -3.44039731       0.00000000
Si       0.89177977       3.67600143      -0.53638595       0.00000000
Si      -2.82673857      -2.60152931       0.11991005       0.00000000
Si      -0.18285525       2.58151542       2.84819337       0.00000000
H        3.08830710      -0.67481326      -2.19767989       0.00000000
