10
Lattice="16.290000149 0.0 0.0 0.0 16.290000149 0.0 0.0 0.0 29.1751946751" Properties=species:S:1:pos:R:3:initial_magmoms:R:1 pbc="T T T"
Si      -1.31883841       1.30199455       1.43207318       0.00000000
Si      -1.46127817      -1.35057133      -1.25167799       0.00000000
Si       1.33087672      -1.40234095       1.36874842       0.00000000
Si       1.34649883       1.35939041      -1.40201106       0.00000000
Si      -0.00123804      -2.54195678      -2.62162173       0.00000000
Si      -2.55880879       2.71033022       0.04960075       0.00000000
Si       2.64264527       2.64108795       0.10666159       0.00000000
Si      -2.73386113      -0.08395866       2.68861381       0.00000000
Si       2.67173921      -0.07965810       2.77686877       0.00000000
Si       2.71596656      -2.75944458       0.04758766       0.00000000
