10
Lattice="16.290000149 0.0 0.0 0.0 16.290000149 0.0 0.0 0.0 29.1751946751" Properties=species:S:1:pos:R:3:initial_magmoms:R:1 pbc="T T T"
Si       1.71647732      -1.63290961      -0.10100452       0.00000000
Si      -2.05578173      -0.99621496      -0.73349357       0.00000000
Si       1.39499416       1.73659547      -0.91047030       0.00000000
Si      -1.00289386       1.23720922       1.84801518       0.00000000
H        0.79720003      -1.47501064      -2.64400202       0.00000000
H       -0.59772898       0.55926829      -3.10768339       0.00000000
Si      -2.36143915       2.64121175       0.53460627       0.00000000
Si       2.16220430      -1.87559804       2.18235183       0.00000000
Si      -3.47545361       0.94395664      -0.71998545       0.00000000
Si       3.58500549      -0.73809991      -1.37849877       0.00000000
