10
Lattice="16.290000149 0.0 0.0 0.0 16.290000149 0.0 0.0 0.0 29.1751946751" Properties=species:S:1:pos:R:3:initial_magmoms:R:1 pbc="T T T"
Si       1.31028616      -1.42772077       1.29686658       0.00000000
Si      -1.35141841      -1.38624643      -1.32256992       0.00000000
Si       1.37565793       1.33048576      -1.35556707       0.00000000
Si      -1.29917638       1.35775522       1.41738931       0.00000000
Si       2.66082491      -0.08490348       2.60919601       0.00000000
Si      -2.66974695       2.70040961       0.06088863       0.00000000
Si       0.00889434       2.68794776      -2.68356358       0.00000000
Si      -2.69042222      -0.02653641      -2.68484729       0.00000000
Si      -2.63093928      -0.04022001       2.75871888       0.00000000
Si       0.03749958      -2.73667115      -2.65622642       0.00000000
