10
Lattice="16.290000149 0.0 0.0 0.0 16.290000149 0.0 0.0 0.0 29.1751946751" Properties=species:S:1:pos:R:3:initial_magmoms:R:1 pbc="T T T"
Si      -1.34656725      -1.34732962       1.36945446       0.00000000
Si       1.34972425      -1.36839259      -1.36239407       0.00000000
Si      -1.36794462       1.34829073      -1.36907519       0.00000000
Si       1.33116994       1.34540740       1.41388828       0.00000000
Si      -2.64793496       2.69358410       0.08656280       0.00000000
Si       0.04707810       2.73424395      -2.62561581       0.00000000
Si       2.69679323       0.02990844      -2.68894057       0.00000000
Si      -2.71187777      -2.67942809      -0.00624349       0.00000000
Si       2.72054405       2.70488936       0.11104079       0.00000000
Si       0.00454491      -2.70731657       2.72799740       0.00000000
