10
Lattice="16.290000149 0.0 0.0 0.0 16.290000149 0.0 0.0 0.0 29.1751946751" Properties=species:S:1:pos:R:3:initial_magmoms:R:1 pbc="T T T"
Si      -0.52068868      -0.92318689      -2.08719343       0.00000000
Si       2.05578173       0.99621496       0.73349357       0.00000000
Si      -1.41967188       1.94017160       0.01350812       0.00000000
Si      -0.66825490      -1.73835479       1.52466650       0.00000000
H        1.45805275       1.55548324      -2.37418982       0.00000000
H        2.85298176      -0.47879568      -1.91050845       0.00000000
Si      -1.94320154      -0.33536223       2.85911452       0.00000000
Si       0.26370252       1.18859986      -3.26683407       0.00000000
Si       1.05288787       2.23342418       2.58150875       0.00000000
Si      -3.08850258       1.14837985       1.46053942       0.00000000
