10
Lattice="16.290000149 0.0 0.0 0.0 16.290000149 0.0 0.0 0.0 29.1751946751" Properties=species:S:1:pos:R:3:initial_magmoms:R:1 pbc="T T T"
Si       1.38907275      -1.34970796       1.32928022       0.00000000
Si       1.37630139       1.34775316      -1.35016966       0.00000000
Si      -1.31472455      -1.36630747      -1.39349482       0.00000000
Si      -1.36999716       1.33951042       1.37981166       0.00000000
Si       0.02897665      -2.69972543       2.68306760       0.00000000
Si      -2.66273899      -2.72056034      -0.03690662       0.00000000
Si      -2.70250288       2.70553282       0.00837328       0.00000000
Si       0.02997034       2.70911336      -2.70456972       0.00000000
Si      -2.68396486      -0.01042560      -2.73418254       0.00000000
Si       2.70761794      -2.71218728      -0.06138461       0.00000000
