10
Lattice="16.290000149 0.0 0.0 0.0 16.290000149 0.0 0.0 0.0 29.1751946751" Properties=species:S:1:pos:R:3:initial_magmoms:R:1 pbc="T T T"
Si       1.23994594      -1.38904831       1.37423919       0.00000000
Si      -1.36114354       1.34775316       1.33272289       0.00000000
Si      -1.29448486      -1.43570287      -1.31335056       0.00000000
Si       1.45603279       1.29894832      -1.30296419       0.00000000
Si       2.68097564      -0.05944221       2.58428039       0.00000000
Si      -2.64968255      -0.06913476      -2.65044974       0.00000000
Si       0.09260865       2.62485659      -2.68330100       0.00000000
Si       0.02593368       2.69998607       2.62579670       0.00000000
Si      -2.60330492      -2.78327522       0.10856090       0.00000000
Si       0.13066209      -2.79776517      -2.61188013       0.00000000
