10
Lattice="16.290000149 0.0 0.0 0.0 16.290000149 0.0 0.0 0.0 29.1751946751" Properties=species:S:1:pos:R:3:initial_magmoms:R:1 pbc="T T T"
Si       1.48993228      -1.26467416      -1.28528403       0.00000000
Si      -1.34328970       1.41446071      -1.37245951       0.00000000
Si      -1.38740302      -1.82742851       0.75330353       0.00000000
Si       1.07054623       1.69626143       1.37817785       0.00000000
H        2.97939053       0.09801693       1.61496373       0.00000000
Si      -2.47161656       2.53021169       0.37840227       0.00000000
Si       0.06260247      -2.53609238      -2.68939862       0.00000000
Si      -0.61002793       3.37290969       1.62864689       0.00000000
Si       2.77667500      -2.61115670       0.21767613       0.00000000
Si      -3.14932944      -0.85607209       2.00818700       0.00000000
