10
Lattice="16.290000149 0.0 0.0 0.0 16.290000149 0.0 0.0 0.0 29.1751946751" Properties=species:S:1:pos:R:3:initial_magmoms:R:1 pbc="T T T"
Si      -1.27494664       1.40299255       1.33444802       0.00000000
Si       1.63167809      -1.20213685       1.19424254       0.00000000
Si      -1.35465361      -1.92619478      -0.49664934       0.00000000
Si       0.66825490       1.73835479      -1.52466650       0.00000000
Si       0.32227973      -2.59729391       2.57296042       0.00000000
Si       0.14756622       0.81516790      -3.61185993       0.00000000
Si      -2.59495793       0.06312375       2.69020386       0.00000000
Si       0.23250391       2.78207139       2.49970734       0.00000000
Si      -2.42024768       2.88673464      -0.06412708       0.00000000
Si      -0.44372169      -2.82813299      -2.46049004       0.00000000
