10
Lattice="16.290000149 0.0 0.0 0.0 16.290000149 0.0 0.0 0.0 29.1751946751" Properties=species:S:1:pos:R:3:initial_magmoms:R:1 pbc="T T T"
Si      -1.32020677      -1.34227972      -1.39172681       0.00000000
Si       1.35327547       1.31435866      -1.40222696       0.00000000
Si      -1.38015397       1.35746200       1.33648649       0.00000000
Si       1.35148357      -1.36893016       1.35574212       0.00000000
Si       2.69620679       2.68175756      -0.03728590       0.00000000
Si      -2.69706854      -2.69464295      -0.02182305       0.00000000
Si       0.10370214      -2.71886618      -2.67957533       0.00000000
Si      -0.02031363       2.71221986       2.68893182       0.00000000
Si       2.69855255      -0.01270620       2.71831124       0.00000000
Si      -0.01971090       2.66864411      -2.76314184       0.00000000
