10
Lattice="16.290000149 0.0 0.0 0.0 16.290000149 0.0 0.0 0.0 29.1751946751" Properties=species:S:1:pos:R:3:initial_magmoms:R:1 pbc="T T T"
Si      -1.36005211       1.35156502       1.35241615       0.00000000
Si      -1.35871633      -1.34343631      -1.36423210       0.00000000
Si       1.32392089      -1.36433638       1.39235699       0.00000000
Si       1.35527914       1.37748241      -1.35577130       0.00000000
Si       2.69454521      -2.70435994       0.02698705       0.00000000
Si       2.69718419       0.01917333       2.70191478       0.00000000
Si       0.01410714       2.71492400       2.68414709       0.00000000
Si      -2.72331335      -2.69086530      -0.01435420       0.00000000
Si       0.00386073      -2.70604107      -2.70967538       0.00000000
Si      -2.71456562       2.70299972      -0.01674656       0.00000000
