10
Lattice="16.290000149 0.0 0.0 0.0 16.290000149 0.0 0.0 0.0 29.1751946751" Properties=species:S:1:pos:R:3:initial_magmoms:R:1 pbc="T T T"
Si       1.35984034       1.35475786       1.35244532       0.00000000
Si      -1.32920211      -1.35534430       1.38716381       0.00000000
Si       1.38015397      -1.35746200      -1.33648649       0.00000000
Si      -1.36991734       1.35044101      -1.36108118       0.00000000
Si      -2.66846134      -2.72943839       0.04633021       0.00000000
Si      -0.00884547       2.70710480       2.70529910       0.00000000
Si       2.71379999       2.69876432      -0.02476974       0.00000000
Si      -0.02730204       2.67835295      -2.74669287       0.00000000
Si       2.70804962      -0.00666261       2.71761103       0.00000000
Si       0.05994720      -2.69974172      -2.72821330       0.00000000
