10
Lattice="16.290000149 0.0 0.0 0.0 16.290000149 0.0 0.0 0.0 29.1751946751" Properties=species:S:1:pos:R:3:initial_magmoms:R:1 pbc="T T T"
Si      -1.35881407      -1.33918462       1.31422582       0.00000000
Si      -1.40480074       1.36585135      -1.25492140       0.00000000
Si       1.34244262      -1.15049755      -1.55913991       0.00000000
Si       1.41216382       1.45987723       1.23679485       0.00000000
Si       0.42850845       2.38668050      -2.19882356       0.00000000
Si       2.17013753       0.84486457      -2.65364033       0.00000000
Si       0.07459191      -2.65818593       2.59904304       0.00000000
Si       2.76275145      -2.52276716      -0.22272635       0.00000000
Si      -2.69505020       0.10257813       2.60304004       0.00000000
Si      -2.66502773      -2.63394641      -0.16091870       0.00000000
