10
Lattice="16.290000149 0.0 0.0 0.0 16.290000149 0.0 0.0 0.0 29.1751946751" Properties=species:S:1:pos:R:3:initial_magmoms:R:1 pbc="T T T"
Si       1.35016408      -1.34394130       1.36125623       0.00000000
Si      -1.35065278       1.33053463       1.39819203       0.00000000
Si       1.45990981       1.42943676      -1.21088144       0.00000000
Si      -1.41216382      -1.45987723      -1.23679485       0.00000000
Si      -0.98365537       0.92680327      -3.43561841       0.00000000
Si       0.05844852       2.77742874      -2.48073763       0.00000000
Si      -2.81696457      -0.09402588      -2.49171625       0.00000000
Si       2.68842017      -2.65629629      -0.05659988       0.00000000
Si      -0.06972120      -2.61037478      -2.79593476       0.00000000
Si      -0.00285075      -2.71686251       2.70521158       0.00000000
