10
Lattice="16.290000149 0.0 0.0 0.0 16.290000149 0.0 0.0 0.0 29.1751946751" Properties=species:S:1:pos:R:3:initial_magmoms:R:1 pbc="T T T"
Si      -1.36428751      -1.35060391       1.35284211       0.00000000
Si       1.30621366       1.29476179       1.47514452       0.00000000
Si      -1.37215558       1.41232672      -1.30618514       0.00000000
Si       1.36736632      -1.34674318      -1.38789319       0.00000000
Si       2.66502773       2.63394641       0.16091870       0.00000000
Si      -2.70721883      -2.71800281      -0.01209895       0.00000000
Si       2.71529867      -2.71138907      -0.01161756       0.00000000
Si      -2.72684828       0.02386485       2.70184476       0.00000000
Si      -0.01159848      -2.66958893       2.76031185       0.00000000
Si      -2.79151959       0.12644298      -2.65343173       0.00000000
