10
Lattice="16.290000149 0.0 0.0 0.0 16.290000149 0.0 0.0 0.0 29.1751946751" Properties=species:S:1:pos:R:3:initial_magmoms:R:1 pbc="T T T"
Si      -1.56507805       1.28521585      -1.12137778       0.00000000
Si      -1.38955330      -1.43496982       1.18019497       0.00000000
Si       1.56318841       1.11909043       1.46940868       0.00000000
Si       1.07510743      -1.10540683      -1.86770844       0.00000000
Si       2.10351143      -2.44265294      -0.25502038       0.00000000
Si       0.31819257      -3.02835990       1.19133990       0.00000000
Si       0.05589099       2.31239810      -2.51396817       0.00000000
Si       1.83682784       0.76659112      -3.14896629       0.00000000
Si      -3.45836703      -0.21756924      -1.44055441       0.00000000
Si      -2.98126551      -2.24811776      -0.38304113       0.00000000
