10
Lattice="16.290000149 0.0 0.0 0.0 16.290000149 0.0 0.0 0.0 29.1751946751" Properties=species:S:1:pos:R:3:initial_magmoms:R:1 pbc="T T T"
Si       2.24945354      -0.44188254       0.27850641       0.00000000
Si      -1.54970029      -1.71211648      -0.44188750       0.00000000
Si      -0.71988769       0.61159177       2.18974044       0.00000000
Si      -0.05952366       1.44049213      -1.93737880       0.00000000
H        0.13955643      -1.30700373      -2.66296589       0.00000000
Si      -2.81123049      -0.60466852      -2.03779982       0.00000000
Si       2.34194816      -2.13878417       1.98441243       0.00000000
Si      -1.29207394       3.28624689      -1.26649520       0.00000000
H        0.02005299       3.80452953      -0.33356000       0.00000000
Si       3.16038546      -1.34382076      -1.68533430       0.00000000
