10
Lattice="16.290000149 0.0 0.0 0.0 16.290000149 0.0 0.0 0.0 29.1751946751" Properties=species:S:1:pos:R:3:initial_magmoms:R:1 pbc="T T T"
Si       1.34239212       1.36115983       1.35358316       0.00000000
Si      -1.33654564       1.37497375      -1.35297048       0.00000000
Si       1.36583832      -1.35091342      -1.34944028       0.00000000
Si      -1.35413884      -1.34772058       1.37353899       0.00000000
Si      -2.69604389       0.01058850      -2.68414709       0.00000000
Si       2.67164147       0.00172674       2.71860299       0.00000000
Si      -0.00441459      -2.72016938      -2.67361484       0.00000000
Si       2.69457779      -2.71164971       0.02389448       0.00000000
Si      -2.68363091       2.72282465       0.01312884       0.00000000
Si       2.69303024       2.72683199      -0.01015297       0.00000000
