10
Lattice="16.290000149 0.0 0.0 0.0 16.290000149 0.0 0.0 0.0 29.1751946751" Properties=species:S:1:pos:R:3:initial_magmoms:R:1 pbc="T T T"
Si       1.33783255       1.32634810       1.40292133       0.00000000
Si       1.32825403      -1.44868600      -1.30740466       0.00000000
Si      -1.34151409      -1.41581278       1.36251368       0.00000000
Si      -1.42030882       1.37226961      -1.33641355       0.00000000
H        0.50811768       1.64379133      -3.21469508       0.00000000
Si      -2.76275145       2.52276716       0.22272635       0.00000000
Si       2.64741824       2.67641444      -0.01944818       0.00000000
Si      -2.73237060      -0.07610688      -2.70141588       0.00000000
Si      -0.06695190      -2.76529269      -2.68008882       0.00000000
Si       2.69630453      -0.05108544       2.75948036       0.00000000
