10
Lattice="16.290000149 0.0 0.0 0.0 16.290000149 0.0 0.0 0.0 29.1751946751" Properties=species:S:1:pos:R:3:initial_magmoms:R:1 pbc="T T T"
Si       1.36115983       1.36199062      -1.33196434       0.00000000
Si      -1.34954506       1.36436896       1.35699665       0.00000000
Si       1.38368890      -1.33837012       1.35078234       0.00000000
Si      -1.33566598      -1.35066907      -1.39407833       0.00000000
Si       2.69739596      -0.07977213      -2.62077856       0.00000000
Si      -2.68962563      -2.69467553      -0.01686326       0.00000000
Si      -0.02520063       2.71757927      -2.67282711       0.00000000
Si       0.02388114      -2.70101234       2.69546706       0.00000000
Si      -2.71779104       0.02076975       2.70007674       0.00000000
Si       0.01547550       2.72642474       2.71063816       0.00000000
