10
Lattice="16.290000149 0.0 0.0 0.0 16.290000149 0.0 0.0 0.0 29.1751946751" Properties=species:S:1:pos:R:3:initial_magmoms:R:1 pbc="T T T"
Si      -0.96596443       1.46031706       1.51083746       0.00000000
Si       1.56507805      -1.28521585       1.12137778       0.00000000
Si       1.62096904       1.02718225      -1.39259039       0.00000000
Si      -1.89328898      -1.50278509      -0.31917663       0.00000000
H       -0.37737414      -2.35167329      -2.02505026       0.00000000
H        0.76906720      -0.71806321      -3.15226308       0.00000000
H       -2.48961701      -1.59387877      -1.72113226       0.00000000
Si       0.17552475      -2.72018567       2.30157276       0.00000000
Si      -2.66318696       2.38813031       0.20822336       0.00000000
H       -2.12941253       2.64639197      -1.17756921       0.00000000
