10
Lattice="16.290000149 0.0 0.0 0.0 16.290000149 0.0 0.0 0.0 29.1751946751" Properties=species:S:1:pos:R:3:initial_magmoms:R:1 pbc="T T T"
Si       1.29614644       1.28169754       1.50867266       0.00000000
Si      -1.34649883      -1.35939041       1.40201106       0.00000000
Si       1.47900169      -1.29981788      -1.33952071       0.00000000
Si      -1.35208630       1.38608712      -1.40061357       0.00000000
Si      -0.01969461      -2.54753415      -2.71020053       0.00000000
Si      -2.59590926       2.74609687       0.07289393       0.00000000
Si       2.69423570      -2.71486504       0.11024810       0.00000000
Si       2.28639926       3.06691214       0.35429189       0.00000000
Si       2.37078146       2.37618355      -1.87590667       0.00000000
Si       0.16700508       2.75686457      -2.68397203       0.00000000
