10
Lattice="16.290000149 0.0 0.0 0.0 16.290000149 0.0 0.0 0.0 29.1751946751" Properties=species:S:1:pos:R:3:initial_magmoms:R:1 pbc="T T T"
Si       1.34423452      -1.33188670      -1.38535494       0.00000000
Si      -1.36523233       1.33876108      -1.36283169       0.00000000
Si      -1.35167905      -1.39144294       1.32688785       0.00000000
Si       1.37109673       1.34873056       1.35472099       0.00000000
Si      -2.73067643      -0.04367349       2.64756139       0.00000000
Si       2.68977224      -2.71046054      -0.03031303       0.00000000
Si      -2.69995349      -0.06243957      -2.70579508       0.00000000
Si      -2.71945262       2.69345378       0.00096278       0.00000000
Si      -0.01221750       2.71168229      -2.70678704       0.00000000
Si       0.02695995       2.71407692       2.70518240       0.00000000
