10
Lattice="16.290000149 0.0 0.0 0.0 16.290000149 0.0 0.0 0.0 29.1751946751" Properties=species:S:1:pos:R:3:initial_magmoms:R:1 pbc="T T T"
Si      -1.34333857      -1.32985208       1.35023968       0.00000000
Si       1.31706280      -1.32277408      -1.39955743       0.00000000
Si      -1.19425249       1.40313916      -1.44189355       0.00000000
Si       1.42990363       1.40341609       1.24202888       0.00000000
Si       2.30731562       0.46244052      -2.55393819       0.00000000
Si       0.67956994       2.20273382      -2.63839980       0.00000000
Si      -2.64442088      -2.66186747      -0.07414584       0.00000000
Si      -2.70052364       0.06600708       2.63902473       0.00000000
Si       0.05352894       2.75307519       2.59342390       0.00000000
Si       2.70091460      -2.64890042      -0.03632312       0.00000000
