10
Lattice="16.290000149 0.0 0.0 0.0 16.290000149 0.0 0.0 0.0 29.1751946751" Properties=species:S:1:pos:R:3:initial_magmoms:R:1 pbc="T T T"
Si       1.34801444       1.35425287      -1.35658820       0.00000000
Si      -1.34413678       1.36534636       1.35046141       0.00000000
Si       1.34314309      -1.35747829       1.36910436       0.00000000
Si      -1.37109673      -1.34873056      -1.35472099       0.00000000
Si      -2.68159466      -0.08239482       2.60662859       0.00000000
Si       2.67104037      -2.70611111      -0.02576170       0.00000000
Si       2.66273899       2.72056034       0.03690662       0.00000000
Si      -0.02122587       2.71013474      -2.69727592       0.00000000
Si       2.69171564       0.02083491       2.71997422       0.00000000
Si      -0.02686221      -2.68061726      -2.74007593       0.00000000
