10
Lattice="16.290000149 0.0 0.0 0.0 16.290000149 0.0 0.0 0.0 29.1751946751" Properties=species:S:1:pos:R:3:initial_magmoms:R:1 pbc="T T T"
Si      -1.37238364       1.36136997      -1.31227108       0.00000000
Si      -1.38937411      -1.35948196       1.30284749       0.00000000
Si       1.31711167      -1.35229807      -1.39186101       0.00000000
Si       1.35588187       1.37276157       1.33680742       0.00000000
Si      -0.00723276      -2.70550838       2.63796275       0.00000000
Si      -0.02904507       2.69122205      -2.66251076       0.00000000
Si       2.67186953       0.04232163      -2.69883388       0.00000000
Si       2.73466749       0.01233153       2.66069023       0.00000000
Si      -2.70679529       0.01083285       2.69225779       0.00000000
Si      -0.00562005       2.72904744       2.67568628       0.00000000
