10
Lattice="16.290000149 0.0 0.0 0.0 16.290000149 0.0 0.0 0.0 29.1751946751" Properties=species:S:1:pos:R:3:initial_magmoms:R:1 pbc="T T T"
Si      -1.31167081      -1.35962857      -1.34618725       0.00000000
Si       1.31776327      -1.39139407       1.34130040       0.00000000
Si      -1.41892417       1.33185412       1.30130121       0.00000000
Si       1.30797298       1.29005398      -1.47062820       0.00000000
Si      -0.04549797       2.65821851       2.66538744       0.00000000
Si       2.69540858      -0.02723688       2.64712376       0.00000000
Si       2.67893939       2.69680952      -0.15830461       0.00000000
Si       2.64507248      -2.75068056      -0.02514902       0.00000000
Si      -2.76926745      -0.04362462       2.64942860       0.00000000
Si      -2.77161321       2.65083914      -0.10616853       0.00000000
