10
Lattice="16.290000149 0.0 0.0 0.0 16.290000149 0.0 0.0 0.0 29.1751946751" Properties=species:S:1:pos:R:3:initial_magmoms:R:1 pbc="T T T"
Si       1.37764531       1.36415719       1.30582336       0.00000000
Si      -1.31776327       1.39139407      -1.34130040       0.00000000
Si       1.32730921      -1.35928648      -1.36644942       0.00000000
Si      -1.37041255      -1.35786925       1.33829536       0.00000000
Si      -2.62943408       0.03176550      -2.68748765       0.00000000
Si      -0.00764001       2.67900455       2.66372445       0.00000000
Si       2.73901692       0.04528620      -2.62307757       0.00000000
Si       2.70655094      -0.00229689       2.68268833       0.00000000
Si      -0.00744453      -2.72321561       2.67422752       0.00000000
Si      -0.09031176      -2.78969511      -2.60418371       0.00000000
