10
Lattice="16.290000149 0.0 0.0 0.0 16.290000149 0.0 0.0 0.0 29.1751946751" Properties=species:S:1:pos:R:3:initial_magmoms:R:1 pbc="T T T"
Si       1.49545785      -1.14437251      -1.31472180       0.00000000
Si      -1.14805405      -1.57022569       1.25960985       0.00000000
Si      -1.74112409       1.22368852      -0.95837597       0.00000000
Si       1.51878024       1.36192546       1.24458463       0.00000000
H        0.25985140       2.32551155       1.54920284       0.00000000
H       -2.02168676      -0.79177546       2.23070621       0.00000000
Si       2.91105561      -2.28582911       0.18214074       0.00000000
Si      -3.34466283       1.44660088       0.71934360       0.00000000
Si       2.65911446       0.42798717      -2.59408326       0.00000000
Si      -2.74136268      -2.66975183      -0.08845919       0.00000000
