10
Lattice="16.290000149 0.0 0.0 0.0 16.290000149 0.0 0.0 0.0 29.1751946751" Properties=species:S:1:pos:R:3:initial_magmoms:R:1 pbc="T T T"
Si      -1.36150192       1.35628586       1.33887886       0.00000000
Si       1.34713414       1.37295053      -1.33972494       0.00000000
Si       1.37878561      -1.36043004       1.32388281       0.00000000
Si      -1.35588187      -1.37276157      -1.33680742       0.00000000
Si       2.67691943      -0.04762382      -2.62573835       0.00000000
Si       0.00190593      -2.71621417       2.65479684       0.00000000
Si      -2.72826552      -0.01139160      -2.64907850       0.00000000
Si       0.01146816       2.70320824       2.68216317       0.00000000
Si       2.73066015       0.00934557       2.67265206       0.00000000
Si      -2.70570386       0.00109795       2.70471560       0.00000000
