10
Lattice="16.290000149 0.0 0.0 0.0 16.290000149 0.0 0.0 0.0 29.1751946751" Properties=species:S:1:pos:R:3:initial_magmoms:R:1 pbc="T T T"
Si      -1.42944751       1.44427141       1.12108603       0.00000000
Si      -1.35897697      -1.30797298      -1.38987710       0.00000000
Si       1.34939845       1.39087279      -1.34576420       0.00000000
Si       1.33138171      -1.31546638       1.44262585       0.00000000
H       -0.58477843       2.37974096       1.92912222       0.00000000
Si      -2.69988833      -2.64065789      -0.01689244       0.00000000
Si       0.01417230      -2.66717801      -2.71034641       0.00000000
Si       2.71728605      -2.66527208       0.08813826       0.00000000
Si       2.73329912       0.04753422      -2.68134627       0.00000000
Si      -2.72455139       2.73839790      -0.30493913       0.00000000
