10
Lattice="16.290000149 0.0 0.0 0.0 16.290000149 0.0 0.0 0.0 29.1751946751" Properties=species:S:1:pos:R:3:initial_magmoms:R:1 pbc="T T T"
Si       1.37326330       1.38350971       1.30955779       0.00000000
Si       1.37062432      -1.34002356      -1.36536994       0.00000000
Si      -1.32392089       1.36433638      -1.39235699       0.00000000
Si      -1.36681246      -1.35918711       1.37666074       0.00000000
Si      -2.67361256      -2.67297725      -0.06975789       0.00000000
Si       2.67711491       0.00244350       2.68391368       0.00000000
Si      -2.68397300       2.71590140      -0.03994084       0.00000000
Si       2.70313004      -2.70604595       0.00606844       0.00000000
Si      -2.69016320       0.03487689       2.74191397       0.00000000
Si       0.04965192       2.75403630       2.68318430       0.00000000
