10
Lattice="16.290000149 0.0 0.0 0.0 16.290000149 0.0 0.0 0.0 29.1751946751" Properties=species:S:1:pos:R:3:initial_magmoms:R:1 pbc="T T T"
Si       1.38528532      -1.31484736      -1.35790109       0.00000000
Si       1.37044513       1.36058968       1.32860919       0.00000000
Si      -1.35562123       1.37060803      -1.33963741       0.00000000
Si      -1.35565381      -1.35578413       1.35798861       0.00000000
Si       0.00764001      -2.67900455      -2.66372445       0.00000000
Si      -0.00855225       2.70835913       2.64928273       0.00000000
Si       0.02217069       2.68959305      -2.70407374       0.00000000
Si       2.71419095      -2.68130144       0.01896388       0.00000000
Si      -2.73421137       0.01032786       2.66961784       0.00000000
Si      -2.73382040      -2.69109173       0.01327471       0.00000000
