10
Lattice="16.290000149 0.0 0.0 0.0 16.290000149 0.0 0.0 0.0 29.1751946751" Properties=species:S:1:pos:R:3:initial_magmoms:R:1 pbc="T T T"
Si       1.28868562       1.49016034      -1.28041790       0.00000000
Si       1.37298637      -1.35428545       1.36091488       0.00000000
Si      -1.38774511       1.36717084       1.35293547       0.00000000
Si      -1.16786269      -1.47510838      -1.44727638       0.00000000
Si       2.60317460       0.06120153      -2.57448920       0.00000000
Si      -2.52640798      -0.07110585      -2.76068529       0.00000000
Si      -2.65650155      -2.66481596      -0.00441129       0.00000000
Si       0.01971090      -2.66864411       2.76314184       0.00000000
Si       2.71591769       0.01311345       2.72585594       0.00000000
Si      -0.02410920       2.73484668       2.71453597       0.00000000
