10
Lattice="16.290000149 0.0 0.0 0.0 16.290000149 0.0 0.0 0.0 29.1751946751" Properties=species:S:1:pos:R:3:initial_magmoms:R:1 pbc="T T T"
Si       0.07819200       1.03734721       1.10401854       0.00000000
H        1.18564974       1.79564672      -1.89749631       0.00000000
Si      -2.44503128      -1.45857403      -0.96995852       0.00000000
Si      -0.45579420      -2.34796406      -1.95360021       0.00000000
Si      -1.53639136       0.34857342       2.66961784       0.00000000
Si       2.27480567       1.20756142       1.77029246       0.00000000
Si      -0.36377199       3.17317800       0.22569931       0.00000000
Si       2.30070677       0.79570135      -2.16369079       0.00000000
Si      -3.06911748      -0.37901943       1.06848315       0.00000000
H       -1.33731127      -2.39892244       1.94403075       0.00000000
