10
Lattice="16.290000149 0.0 0.0 0.0 16.290000149 0.0 0.0 0.0 29.1751946751" Properties=species:S:1:pos:R:3:initial_magmoms:R:1 pbc="T T T"
Si       1.53272611       0.72759286       1.60113468       0.00000000
Si      -1.21898071      -1.31756779       1.50071366       0.00000000
Si       0.62408620      -1.07955460      -2.03844168       0.00000000
Si      -1.49327173       1.86616613      -0.34893533       0.00000000
H        1.73180621      -2.01990300       0.87554759       0.00000000
H        3.06911748       0.37901943      -1.06848315       0.00000000
Si      -1.87395275       1.22057713      -2.57275619       0.00000000
Si       0.30017583       2.57334761       2.27201829       0.00000000
Si       3.14730948       1.41636664       0.03553539       0.00000000
Si      -2.55599876       0.22617036       2.65669323       0.00000000
