10
Lattice="16.290000149 0.0 0.0 0.0 16.290000149 0.0 0.0 0.0 29.1751946751" Properties=species:S:1:pos:R:3:initial_magmoms:R:1 pbc="T T T"
Si      -1.37314927       1.35920503       1.32046931       0.00000000
Si      -1.37415925      -1.36335898      -1.33173094       0.00000000
Si       1.35358498       1.37479456      -1.34264246       0.00000000
Si       1.35946567      -1.32522409       1.39139421       0.00000000
Si      -0.01417230       2.66717801       2.71034641       0.00000000
Si       2.68307705      -2.69575067       0.01776769       0.00000000
Si      -0.01410714      -2.71492400      -2.68414709       0.00000000
Si      -2.71406063       0.02652012       2.69345397       0.00000000
Si       2.70067025       0.02694366      -2.70874177       0.00000000
Si      -2.73007370       2.69395877      -0.05648318       0.00000000
