10
Lattice="16.290000149 0.0 0.0 0.0 16.290000149 0.0 0.0 0.0 29.1751946751" Properties=species:S:1:pos:R:3:initial_magmoms:R:1 pbc="T T T"
Si       1.29096622      -1.41584536       1.35562542       0.00000000
Si      -1.33384150       1.06834708       1.62155732       0.00000000
Si       1.31978323       1.32612004      -1.44035019       0.00000000
Si      -1.40942710      -1.36591651      -1.31548035       0.00000000
H       -2.51959061       1.58097709       0.82326564       0.00000000
Si       2.71802073       0.01866834       2.51773177       0.00000000
Si      -2.02732310      -0.79239448       3.04072631       0.00000000
Si      -0.34674894      -2.46904274       2.79025727       0.00000000
H       -1.88735942       3.23999958      -0.28002352       0.00000000
Si       2.60868225       2.73523764      -0.12186479       0.00000000
