10
Lattice="16.290000149 0.0 0.0 0.0 16.290000149 0.0 0.0 0.0 29.1751946751" Properties=species:S:1:pos:R:3:initial_magmoms:R:1 pbc="T T T"
Si       1.34656725       1.34732962      -1.36945446       0.00000000
Si       1.35111216      -1.35998695       1.35854294       0.00000000
Si      -1.33070993       1.34899120       1.39051895       0.00000000
Si      -1.36531052      -1.33209847      -1.37569795       0.00000000
Si       2.67773719       2.69273702       0.04443382       0.00000000
Si      -2.70558658      -2.68587893       0.00703122       0.00000000
Si      -2.69995024       2.70487307       0.04983123       0.00000000
Si       2.69163256       0.00311139       2.72262917       0.00000000
Si      -0.00995971      -2.71665074      -2.70783734       0.00000000
Si      -2.67872437      -0.00526167       2.74710716       0.00000000
