10
Lattice="16.290000149 0.0 0.0 0.0 16.290000149 0.0 0.0 0.0 29.1751946751" Properties=species:S:1:pos:R:3:initial_magmoms:R:1 pbc="T T T"
Si      -1.22179888       1.22230941       1.58191990       0.00000000
Si      -1.92373499      -0.82214002      -1.09763384       0.00000000
Si       1.29973024       1.55534804      -1.27278800       0.00000000
Si       1.31629717      -1.51335730       1.31383195       0.00000000
H        1.45853477       0.57130660      -2.56291832       0.00000000
H       -0.82300339      -2.54598041      -1.88141494       0.00000000
Si      -2.62326017       2.57030138       0.31206372       0.00000000
Si      -3.66536406       0.71967592      -0.64281706       0.00000000
Si       2.70911662      -0.21313836       2.72992880       0.00000000
Si       2.88416896       2.58115052       0.09091574       0.00000000
