10
Lattice="16.290000149 0.0 0.0 0.0 16.290000149 0.0 0.0 0.0 29.1751946751" Properties=species:S:1:pos:R:3:initial_magmoms:R:1 pbc="T T T"
Si       1.33900380      -1.35971002       1.36227736       0.00000000
Si      -1.35236486      -1.35307999      -1.35927232       0.00000000
Si      -1.32789728       1.34863282       1.39486606       0.00000000
Si       1.35879615       1.35138583      -1.36280252       0.00000000
Si       2.69042222       0.02653641       2.68484729       0.00000000
Si      -2.67104037       2.70611111       0.02576170       0.00000000
Si       0.03843951      -2.71106327      -2.68093781       0.00000000
Si      -2.69057208      -2.71156826       0.01945985       0.00000000
Si      -2.69790258       0.02549385      -2.71431424       0.00000000
Si       2.69931656       2.71448417       0.00128371       0.00000000
