10
Lattice="16.290000149 0.0 0.0 0.0 16.290000149 0.0 0.0 0.0 29.1751946751" Properties=species:S:1:pos:R:3:initial_magmoms:R:1 pbc="T T T"
H       -1.44026407       0.28707867       0.44191667       0.00000000
Si       0.44196399      -2.13583079       0.87831924       0.00000000
Si      -0.35942256       0.22071321      -2.35998150       0.00000000
Si       1.21502224       1.57486834       1.41528869       0.00000000
H        0.17905968       2.68016114      -0.99230672       0.00000000
H        1.54942174      -1.37753128      -2.12319562       0.00000000
H        0.36377199      -3.17317800      -0.22569931       0.00000000
Si      -0.79141708       2.94352158       1.48659287       0.00000000
Si       3.42296886       0.14617017       0.36495251       0.00000000
Si      -2.67185324       2.23039424       0.22085622       0.00000000
