10
Lattice="16.290000149 0.0 0.0 0.0 16.290000149 0.0 0.0 0.0 29.1751946751" Properties=species:S:1:pos:R:3:initial_magmoms:R:1 pbc="T T T"
Si       1.36676359      -1.35746200       1.32799651       0.00000000
Si       1.36824598       1.34359921      -1.34308009       0.00000000
Si      -1.34052040      -1.36309834      -1.36408623       0.00000000
Si      -1.31854519       1.36247932       1.39066483       0.00000000
Si      -0.01389537       2.68962563      -2.67819535       0.00000000
Si      -0.00889434      -2.68794776       2.68356358       0.00000000
Si       2.71516835       0.00408879       2.67653236       0.00000000
Si      -2.69931656      -2.71448417      -0.00128371       0.00000000
Si      -2.69163256      -0.00311139      -2.72262917       0.00000000
Si       2.71779104      -0.02076975      -2.70007674       0.00000000
