10
Lattice="16.290000149 0.0 0.0 0.0 16.290000149 0.0 0.0 0.0 29.1751946751" Properties=species:S:1:pos:R:3:initial_magmoms:R:1 pbc="T T T"
Si      -1.38841300      -1.35997066       1.31323386       0.00000000
Si      -1.37031481       1.34159554      -1.35273708       0.00000000
Si       1.35177679      -1.37047771      -1.35046141       0.00000000
Si       1.37720548       1.36576990       1.33636979       0.00000000
Si       2.77213449      -0.08503380       2.52995618       0.00000000
Si       0.00656487       2.69737967      -2.68365111       0.00000000
Si      -0.06843429      -2.80095150       2.58891925       0.00000000
Si      -2.68913693       2.71046054       0.03080901       0.00000000
Si      -2.67931406       0.00798210       2.72519658       0.00000000
Si       2.72551250      -0.02770929      -2.69257872       0.00000000
