10
Lattice="16.290000149 0.0 0.0 0.0 16.290000149 0.0 0.0 0.0 29.1751946751" Properties=species:S:1:pos:R:3:initial_magmoms:R:1 pbc="T T T"
Si      -1.41499828      -1.32644584       1.23907052       0.00000000
Si       1.36233271      -1.36979353      -1.26214810       0.00000000
Si       1.22981356       1.13803570       1.62543762       0.00000000
Si      -1.39492900       1.45080370      -1.19358639       0.00000000
Si      -0.37097217       1.06354153       3.41723220       0.00000000
Si       2.69979059       0.07794765      -2.51831528       0.00000000
Si      -2.49781088       0.09355347       2.73750852       0.00000000
Si      -0.05784579      -2.67980276      -2.57593629       0.00000000
Si       2.52780077       2.72780939       0.34934378       0.00000000
Si      -0.11989440      -2.62057232       2.66509568       0.00000000
