10
Lattice="16.290000149 0.0 0.0 0.0 16.290000149 0.0 0.0 0.0 29.1751946751" Properties=species:S:1:pos:R:3:initial_magmoms:R:1 pbc="T T T"
Si       1.44102970       1.32960610       1.21004120       0.00000000
Si      -1.23994594       1.38904831      -1.37423919       0.00000000
Si       1.52031313      -1.31702859      -1.19796267       0.00000000
Si      -1.16414857      -1.44004416       1.50246418       0.00000000
H        2.08875269       0.49163220       2.29074876       0.00000000
Si       2.50139468      -2.17768143       0.78977252       0.00000000
Si       0.75292381      -2.50204465       2.28056662       0.00000000
Si       0.00698841       2.55495620       2.49436244       0.00000000
Si      -2.41839713      -2.75832057       0.03150921       0.00000000
Si      -2.53443080      -0.04665456      -2.68758976       0.00000000
