10
Lattice="16.28999089631971 0.0 0.0 0.0 16.28999089631971 0.0 0.0 0.0 34.185847837958455" Properties=species:S:1:pos:R:3:initial_magmoms:R:1 pbc="T T T"
Si      -0.78810435      -1.37109672      -1.73291578       0.00000000
Si       2.22923437      -0.84789450       0.48885790       0.00000000
Si      -2.20730544       1.18605861       0.48735372       0.00000000
Si       2.17291984       1.51555644       0.03169030       0.00000000
Si       0.05735709       1.51676190       2.77258529       0.00000000
Si       1.96830115       1.32888933      -2.31910084       0.00000000
Si       1.95504109      -0.26380026       2.74905858       0.00000000
Si      -1.30907484       3.07083346       1.48523918       0.00000000
Si      -2.32097706      -2.78506872      -0.69694727       0.00000000
Si       0.89182374       3.57411952       0.52810327       0.00000000
