10
Lattice="16.28999089631971 0.0 0.0 0.0 16.28999089631971 0.0 0.0 0.0 34.185847837958455" Properties=species:S:1:pos:R:3:initial_magmoms:R:1 pbc="T T T"
Si      -1.35624024       1.35782037       1.35591404       0.00000000
Si      -1.35684297      -1.35822762      -1.35765752       0.00000000
Si       1.35871632       1.35716877      -1.35765752       0.00000000
Si       1.36054080      -1.36032903       1.36213587       0.00000000
Si      -2.70705917       0.00133578       2.68314614       0.00000000
Si      -2.71471710       2.71256193      -0.00095720       0.00000000
Si      -2.71394658      -0.00074934      -2.71473388       0.00000000
Si       0.00107514       2.71414206      -2.71469969       0.00000000
Si       0.00066789      -2.71503801      -2.71463132       0.00000000
Si      -2.71434568      -2.71640637      -0.00160674       0.00000000
