10
Lattice="16.28999089631971 0.0 0.0 0.0 16.28999089631971 0.0 0.0 0.0 34.185847837958455" Properties=species:S:1:pos:R:3:initial_magmoms:R:1 pbc="T T T"
Si      -0.29551689      -0.11811879       2.38231051       0.00000000
Si       1.90503405       0.90932409      -1.18802725       0.00000000
Si      -0.86421708      -1.92665088      -1.21961499       0.00000000
Si      -1.84021614       1.65358161      -0.21967838       0.00000000
Si      -0.69423093      -2.51033787       2.26026696       0.00000000
Si      -2.18263194      -0.54722997      -2.63791824       0.00000000
Si       0.55346904       2.20582890      -2.63173059       0.00000000
Si      -0.87832422       3.48299748      -1.31619006       0.00000000
Si      -3.64179240       0.73015038      -1.37471627       0.00000000
Si       3.44439018       2.04066459       0.27311089       0.00000000
