10
Lattice="16.28999089631971 0.0 0.0 0.0 16.28999089631971 0.0 0.0 0.0 34.185847837958455" Properties=species:S:1:pos:R:3:initial_magmoms:R:1 pbc="T T T"
Si      -0.69403545       1.70290773       1.49481122       0.00000000
Si       2.17080540      -0.69607170       0.70966441       0.00000000
Si      -1.32154254      -2.01595266       0.18227904       0.00000000
Si      -0.62706726       1.10283300      -2.15661542       0.00000000
Si      -2.77404039       2.40487641       0.56348564       0.00000000
Si      -1.42306182      -0.78763779      -3.34833474       0.00000000
Si      -2.80842858      -1.80296091      -1.68122675       0.00000000
Si       2.83068072      -2.45988774      -0.69780192       0.00000000
Si       0.85193442       3.49598061       1.29701179       0.00000000
Si       3.66510339       1.18231191       0.63223342       0.00000000
