10
Lattice="16.28999089631971 0.0 0.0 0.0 16.28999089631971 0.0 0.0 0.0 34.185847837958455" Properties=species:S:1:pos:R:3:initial_magmoms:R:1 pbc="T T T"
Si       2.22834168      -0.59373792       0.41768292       0.00000000
Si      -1.57773537      -1.71626553       0.30182702       0.00000000
Si      -0.26220384       0.65394576      -2.29838421       0.00000000
Si      -0.67463406       1.39044924       1.86825763       0.00000000
Si      -3.38873539      -0.13305672       0.69602425       0.00000000
Si      -1.26244242       3.30367716       0.60495310       0.00000000
Si       3.29942547       1.57967388       0.48800325       0.00000000
Si       2.30321052      -1.33503066       2.59539102       0.00000000
Si       1.28376603       2.44701864      -2.49618363       0.00000000
Si      -2.48728752       0.21501171       2.89680781       0.00000000
