10
Lattice="16.28999089631971 0.0 0.0 0.0 16.28999089631971 0.0 0.0 0.0 34.185847837958455" Properties=species:S:1:pos:R:3:initial_magmoms:R:1 pbc="T T T"
Si       1.31717682      -1.12366791       1.56681832       0.00000000
Si       1.21114521       1.99422180      -0.20860216       0.00000000
Si       0.01425375      -1.69981263      -1.66249290       0.00000000
Si      -1.73459178       1.71463653       1.26115082       0.00000000
Si      -0.62198478      -1.78232148       2.69428530       0.00000000
Si       2.14650072       0.77444289       2.67786241       0.00000000
Si      -1.81016109       2.28434670      -2.25835256       0.00000000
Si       0.08671167      -0.41655159      -3.66961352       0.00000000
Si      -2.43862929      -2.63878452       1.21886290       0.00000000
Si       0.27561051       3.27723849      -1.90712696       0.00000000
