10
Lattice="16.28999089631971 0.0 0.0 0.0 16.28999089631971 0.0 0.0 0.0 34.185847837958455" Properties=species:S:1:pos:R:3:initial_magmoms:R:1 pbc="T T T"
Si       1.39598784      -1.27711937       1.36371867       0.00000000
Si      -1.34343746       1.41441672       1.36080946       0.00000000
Si      -1.06392922      -1.79252132      -1.19501416       0.00000000
Si       0.68087313       1.79789961      -1.58863916       0.00000000
Si      -0.22946257       0.26483630      -3.43949618       0.00000000
Si      -2.43036116      -0.23844976      -2.48236027       0.00000000
Si       2.57382000       2.73942903      -0.13191642       0.00000000
Si       0.01040605      -2.63191244       2.71318868       0.00000000
Si       2.68165980      -2.68780343      -0.03205609       0.00000000
Si      -2.78224145       2.62274376      -0.03725918       0.00000000
