10
Lattice="16.28999089631971 0.0 0.0 0.0 16.28999089631971 0.0 0.0 0.0 34.185847837958455" Properties=species:S:1:pos:R:3:initial_magmoms:R:1 pbc="T T T"
Si       1.34680833       1.35917244      -1.38244227       0.00000000
Si      -1.37769417       1.28666565       1.42678134       0.00000000
Si      -1.37095011      -1.35553977      -1.37782718       0.00000000
Si       1.38645819      -1.46201121       1.43802849       0.00000000
Si       2.69029350       2.71021617      -0.00293998       0.00000000
Si      -2.53622268      -0.15600933       2.87414258       0.00000000
Si      -2.73025287       2.69931816      -0.01295644       0.00000000
Si       2.69840592      -2.73382038      -0.02365662       0.00000000
Si       2.70001863       0.00167787      -2.74037328       0.00000000
Si      -2.73391812      -2.71560816       0.00129906       0.00000000
