10
Lattice="16.28999089631971 0.0 0.0 0.0 16.28999089631971 0.0 0.0 0.0 34.185847837958455" Properties=species:S:1:pos:R:3:initial_magmoms:R:1 pbc="T T T"
Si       0.75031740       1.89934884       1.11545065       0.00000000
Si      -1.15852851      -1.44267498       1.44736123       0.00000000
Si       1.37769417      -1.28666565      -1.42678134       0.00000000
Si      -1.35255870       1.41265251      -1.43973779       0.00000000
Si      -2.15303301       0.46434645       2.69497445       0.00000000
Si      -2.69788464      -2.57401548      -0.01377690       0.00000000
Si       2.67369399       2.74963797       0.01900734       0.00000000
Si       0.00674406      -2.64220542      -2.80460852       0.00000000
Si      -2.74677093       2.72251512      -0.03986072       0.00000000
Si      -0.99341307       3.53624949       1.26409080       0.00000000
