10
Lattice="16.28999089631971 0.0 0.0 0.0 16.28999089631971 0.0 0.0 0.0 34.185847837958455" Properties=species:S:1:pos:R:3:initial_magmoms:R:1 pbc="T T T"
Si      -1.35156501       1.29650481      -1.44370335       0.00000000
Si       1.53935613       1.13134050       1.46113814       0.00000000
Si       1.34166069      -1.42825833      -1.41170538       0.00000000
Si      -1.90503405      -0.90932409       1.18802725       0.00000000
Si       2.69788464       2.57401548       0.01377690       0.00000000
Si      -2.78335827       2.57367339      -0.12816282       0.00000000
Si      -0.01071882       2.64940560      -2.80112157       0.00000000
Si       2.64499101      -2.81830032       0.07442263       0.00000000
Si       2.70462870      -0.06818994      -2.79083162       0.00000000
Si      -2.72359026      -0.06941169      -2.79120766       0.00000000
