10
Lattice="16.28999089631971 0.0 0.0 0.0 16.28999089631971 0.0 0.0 0.0 34.185847837958455" Properties=species:S:1:pos:R:3:initial_magmoms:R:1 pbc="T T T"
Si       0.78589476      -1.74855231      -1.34439340       0.00000000
Si       0.16744491      -1.15865883       2.05416037       0.00000000
Si       1.59394392       1.76487489      -0.03633958       0.00000000
Si      -2.17479645       0.68313744      -0.69305008       0.00000000
Si       2.77832466      -2.38539357      -0.17954417       0.00000000
Si       0.45918252       3.52284282      -1.19483024       0.00000000
Si      -2.81150739       2.51579502       0.66224861       0.00000000
Si      -1.36583505      -2.91294522       2.12571139       0.00000000
Si       2.31449949      -2.08412631       2.27722315       0.00000000
Si      -3.66909444      -1.19524617      -0.61561909       0.00000000
