10
Lattice="16.28999089631971 0.0 0.0 0.0 16.28999089631971 0.0 0.0 0.0 34.185847837958455" Properties=species:S:1:pos:R:3:initial_magmoms:R:1 pbc="T T T"
Si       0.64821168       1.35047358       1.78354505       0.00000000
Si       1.83656718      -0.77872716      -1.20669273       0.00000000
Si      -1.05595038       1.23588972      -1.69739667       0.00000000
Si      -1.43412273      -1.78577496       0.65038612       0.00000000
Si       1.80625149      -0.24223230       3.11296504       0.00000000
Si      -3.14067942       0.08412156      -1.87051390       0.00000000
Si       1.03029363      -1.27788534      -3.33831828       0.00000000
Si      -0.79741179      -3.61843254      -0.70491258       0.00000000
Si      -1.24696692       2.54993886       2.53443762       0.00000000
Si       3.20139225       1.07553096      -1.80839818       0.00000000
