10
Lattice="16.28999089631971 0.0 0.0 0.0 16.28999089631971 0.0 0.0 0.0 34.185847837958455" Properties=species:S:1:pos:R:3:initial_magmoms:R:1 pbc="T T T"
Si      -1.20433599       1.40862888       1.47902418       0.00000000
Si       1.50299685      -1.30559463       1.45456420       0.00000000
Si      -1.89294687      -0.94152942      -1.45672273       0.00000000
Si       1.05775857       1.94852835      -1.33963614       0.00000000
Si      -2.45496164       2.77544133       0.00269043       0.00000000
Si      -2.57382000      -2.73942903       0.13191642       0.00000000
Si      -2.56217917       0.06056622       2.84968601       0.00000000
Si       0.15374502      -2.65931481       2.84831857       0.00000000
Si      -0.88712082      -0.93173913      -3.72191246       0.00000000
Si      -3.65182867       0.87343722      -1.23157461       0.00000000
