10
Lattice="16.28999089631971 0.0 0.0 0.0 16.28999089631971 0.0 0.0 0.0 34.185847837958455" Properties=species:S:1:pos:R:3:initial_magmoms:R:1 pbc="T T T"
Si      -1.37476197      -1.91980908       0.38609518       0.00000000
Si      -0.77051700       1.69626159       1.54051772       0.00000000
Si      -0.77936247       0.97003692      -2.08978205       0.00000000
Si       2.34944154      -0.73510254       0.04885160       0.00000000
Si      -3.26994057      -0.72034380       1.13698775       0.00000000
Si       2.31254469      -2.70760977      -1.17107106       0.00000000
Si      -2.32057566       0.51623010       2.92473766       0.00000000
Si       0.58510422       0.07192035      -3.77497436       0.00000000
Si      -0.57836016       3.34919861      -1.80778283       0.00000000
Si      -0.21672216      -3.51251496       1.71551517       0.00000000
