10
Lattice="16.28999089631971 0.0 0.0 0.0 16.28999089631971 0.0 0.0 0.0 34.185847837958455" Properties=species:S:1:pos:R:3:initial_magmoms:R:1 pbc="T T T"
Si       1.01985174      -1.58552199       1.43594316       0.00000000
Si      -0.84541842      -0.73798587      -2.09292715       0.00000000
Si      -1.70341272       1.18894194       1.18761702       0.00000000
Si       1.48260177       1.83430287      -0.46068874       0.00000000
Si       2.89038357       1.28109447       1.49703330       0.00000000
Si       1.14207561      -1.82573433      -2.86439961       0.00000000
Si      -2.25502470       2.89413257      -0.38151428       0.00000000
Si      -0.01001835       3.67456203      -0.69277659       0.00000000
Si       1.70157195      -0.25124067       3.32413114       0.00000000
Si      -0.53515908      -3.42181224       1.53788541       0.00000000
