10
Lattice="16.28999089631971 0.0 0.0 0.0 16.28999089631971 0.0 0.0 0.0 34.185847837958455" Properties=species:S:1:pos:R:3:initial_magmoms:R:1 pbc="T T T"
Si       1.35736425       1.35654161      -1.35639264       0.00000000
Si      -1.35687555       1.35750271       1.35734985       0.00000000
Si       1.35769005      -1.35748845       1.35728148       0.00000000
Si      -1.35842310      -1.35916388      -1.35782845       0.00000000
Si      -0.00022806       2.71270040       2.71469969       0.00000000
Si       2.71337643      -0.00009285       2.71466551       0.00000000
Si      -2.71443528       2.71483439       0.00000000       0.00000000
Si      -2.71515204      -2.71427142       0.00003419       0.00000000
Si      -2.71598283      -0.00021340       2.71357156       0.00000000
Si      -2.71591767       0.00111749      -2.71363993       0.00000000
