10
Lattice="16.28999089631971 0.0 0.0 0.0 16.28999089631971 0.0 0.0 0.0 34.185847837958455" Properties=species:S:1:pos:R:3:initial_magmoms:R:1 pbc="T T T"
Si      -1.17527463       1.49778405       1.37625463       0.00000000
Si       0.57537909      -2.07972801       1.11035696       0.00000000
Si      -1.52249598      -1.16867718      -1.48999101       0.00000000
Si       1.29455001       1.47496176      -1.53938959       0.00000000
Si      -2.80214064      -0.13996368       1.96927687       0.00000000
Si       2.51356329      -2.81917183      -0.16323751       0.00000000
Si      -2.62813086       2.78096364      -0.10327550       0.00000000
Si       3.36570948      -0.14351490       1.91912620       0.00000000
Si      -0.12709458      -2.47616960      -2.99321195       0.00000000
Si      -2.79813330      -2.79022450      -0.13780323       0.00000000
