10
Lattice="16.28999089631971 0.0 0.0 0.0 16.28999089631971 0.0 0.0 0.0 34.185847837958455" Properties=species:S:1:pos:R:3:initial_magmoms:R:1 pbc="T T T"
Si       0.92468556       0.84810627       2.00048856       0.00000000
Si       1.88371044      -0.33010286      -1.42828552       0.00000000
Si      -1.59982461      -1.70766671       0.54581155       0.00000000
Si      -1.26472302       1.74924138      -1.10269932       0.00000000
Si      -3.05339760      -1.79805992      -1.36189657       0.00000000
Si      -2.96429130      -0.80955014       2.23100386       0.00000000
Si       1.55836656      -0.90681773       3.37906783       0.00000000
Si      -0.57119256       2.22161880       3.10082906       0.00000000
Si      -0.01275507       3.77236164      -0.95525568       0.00000000
Si       2.86326954       1.66811718      -2.13586459       0.00000000
