10
Lattice="16.28999089631971 0.0 0.0 0.0 16.28999089631971 0.0 0.0 0.0 34.185847837958455" Properties=species:S:1:pos:R:3:initial_magmoms:R:1 pbc="T T T"
Si      -1.49587812       1.37351253       1.10034050       0.00000000
Si       0.63368100      -1.75492400       1.37857927       0.00000000
Si      -0.92468556      -0.84810627      -2.00048856       0.00000000
Si       1.99327113       1.29991431      -0.14378576       0.00000000
Si       0.52066098       3.17271045      -1.08717894       0.00000000
Si       2.46200611      -2.45027894      -0.02010129       0.00000000
Si       3.34753703      -0.46023648       0.93139394       0.00000000
Si       0.95902488      -1.17820913      -3.42877408       0.00000000
Si      -3.68797455       0.72150528       0.51251452       0.00000000
Si      -2.52451017      -2.55577298      -1.45467701       0.00000000
