10
Lattice="16.28999089631971 0.0 0.0 0.0 16.28999089631971 0.0 0.0 0.0 34.185847837958455" Properties=species:S:1:pos:R:3:initial_magmoms:R:1 pbc="T T T"
Si      -1.45810161      -0.24845508      -1.86856530       0.00000000
Si       1.42887313       1.83803328      -0.54776015       0.00000000
Si      -1.49753970       0.53234091       1.81861975       0.00000000
Si       1.47261015      -1.87279614       0.94339318       0.00000000
Si       0.51375402       1.74693960       2.78030237       0.00000000
Si       2.67303329      -1.61069004      -1.22758030       0.00000000
Si       1.62404037      -0.34394706       2.91827653       0.00000000
Si      -0.52066098      -3.17271045       1.08717894       0.00000000
Si      -2.01653910      -1.79919792       2.18751944       0.00000000
Si      -2.68547166       1.73609046      -1.46462510       0.00000000
