10
Lattice="16.28999089631971 0.0 0.0 0.0 16.28999089631971 0.0 0.0 0.0 34.185847837958455" Properties=species:S:1:pos:R:3:initial_magmoms:R:1 pbc="T T T"
Si       1.96849989      -0.52320222      -1.12112551       0.00000000
Si      -1.20130605       1.74972519      -1.01665350       0.00000000
Si      -1.35109260      -1.92907809      -0.24613824       0.00000000
Si       0.77874345       0.75427587       2.12988207       0.00000000
Si       2.76325219      -1.82713527       0.67072671       0.00000000
Si      -1.34754138       1.01744082       3.18031120       0.00000000
Si       3.12379225       1.53919323      -0.98133950       0.00000000
Si      -2.15559054      -2.49598638       1.87225737       0.00000000
Si       2.84919823      -0.39218175       2.51830189       0.00000000
Si      -0.18285525       3.86900532      -0.67588878       0.00000000
