10
Lattice="16.28999089631971 0.0 0.0 0.0 16.28999089631971 0.0 0.0 0.0 34.185847837958455" Properties=species:S:1:pos:R:3:initial_magmoms:R:1 pbc="T T T"
Si       1.69590303      -0.59609997      -1.61808545       0.00000000
Si       1.30903182      -1.02009609       1.79352732       0.00000000
Si      -2.19408055      -1.08035280       0.50082295       0.00000000
Si      -0.96576894       2.16104769      -1.38558737       0.00000000
Si      -0.10567323      -1.51953120      -2.77312334       0.00000000
Si      -1.87910037      -2.44255518      -1.52291200       0.00000000
Si      -2.80801223       0.49094802       2.12936928       0.00000000
Si       2.10502638       0.87037470       2.98524664       0.00000000
Si      -1.65271987       2.55334347       2.26915529       0.00000000
Si      -3.53280320      -0.59297229      -1.44667752       0.00000000
