10
Lattice="16.28999089631971 0.0 0.0 0.0 16.28999089631971 0.0 0.0 0.0 34.185847837958455" Properties=species:S:1:pos:R:3:initial_magmoms:R:1 pbc="T T T"
Si      -0.22794597       1.10009628       2.05206174       0.00000000
Si      -1.75430268      -0.18282267      -1.68628626       0.00000000
Si       1.69249842      -1.87652655       0.06611547       0.00000000
Si       1.55673756       2.13491853      -0.19202201       0.00000000
Si       2.39982651       0.93125043      -2.04482763       0.00000000
Si      -1.15688322      -0.75385233       3.22293897       0.00000000
Si      -2.06731503       2.08114524      -1.95943134       0.00000000
Si       3.44475086      -1.01129949      -1.24388695       0.00000000
Si      -0.65357109      -0.58730337      -3.73155831       0.00000000
Si      -2.96945523      -1.76347395       1.95136347       0.00000000
