10
Lattice="16.28999089631971 0.0 0.0 0.0 16.28999089631971 0.0 0.0 0.0 34.185847837958455" Properties=species:S:1:pos:R:3:initial_magmoms:R:1 pbc="T T T"
Si      -1.35376416       1.35622395       1.35892240       0.00000000
Si      -1.35661491      -1.35627282      -1.35752078       0.00000000
Si       1.35853713       1.35845568      -1.35748659       0.00000000
Si       1.36179513      -1.35772263       1.35820449       0.00000000
Si      -2.71337643       0.00035838      -2.71452876       0.00000000
Si      -2.71585251      -2.71257822      -0.00030767       0.00000000
Si       0.00156384      -2.71456560      -2.71439202       0.00000000
Si       0.01651806       2.70725139       2.72225477       0.00000000
Si       0.00154755       2.71577106      -2.71418691       0.00000000
Si      -2.71521720       2.71485882       0.00095720       0.00000000
