10
Lattice="16.28999089631971 0.0 0.0 0.0 16.28999089631971 0.0 0.0 0.0 34.185847837958455" Properties=species:S:1:pos:R:3:initial_magmoms:R:1 pbc="T T T"
Si      -2.08727028       0.52652538       0.90684849       0.00000000
Si       1.20130605      -1.74972519       1.01665350       0.00000000
Si       1.01845080       2.11928013       0.34076472       0.00000000
Si      -1.28099673       1.02568356       3.03847404       0.00000000
Si      -0.14978655      -3.67880328       0.77051526       0.00000000
Si       3.22921557       1.64713077       1.03022529       0.00000000
Si       0.08382834       2.87994168       2.43676860       0.00000000
Si       1.98004950      -0.99544932       3.14653557       0.00000000
Si       3.16980594      -2.27292741      -0.10447201       0.00000000
Si      -1.42281747       0.36913140      -3.69104805       0.00000000
