10
Lattice="16.28999089631971 0.0 0.0 0.0 16.28999089631971 0.0 0.0 0.0 34.185847837958455" Properties=species:S:1:pos:R:3:initial_magmoms:R:1 pbc="T T T"
Si       2.21076477      -0.47214936       0.68946056       0.00000000
Si      -1.01845080      -2.11928013      -0.34076472       0.00000000
Si      -0.93462246       0.76066155       2.09600387       0.00000000
Si      -0.03396465       1.58182416      -2.31701550       0.00000000
Si      -3.10572108      -1.59275475       0.56608377       0.00000000
Si       1.84052565      -0.91921212       2.96958952       0.00000000
Si      -2.29944753      -1.09359657       2.69770932       0.00000000
Si      -1.52793684       3.02733360       1.52687756       0.00000000
Si       0.18285525      -3.86900532       0.67588878       0.00000000
Si       3.81719402       1.04576913      -0.14094833       0.00000000
