10
Lattice="16.28999089631971 0.0 0.0 0.0 16.28999089631971 0.0 0.0 0.0 34.185847837958455" Properties=species:S:1:pos:R:3:initial_magmoms:R:1 pbc="T T T"
Si       1.45916046      -1.27738035      -1.26320197       0.00000000
Si      -1.24436378       1.47142683      -1.28350837       0.00000000
Si       1.80157626       0.92343123       1.15503789       0.00000000
Si      -1.77342714      -0.92302398       1.25021134       0.00000000
Si       0.10567323       1.51953120       2.77312334       0.00000000
Si      -2.60555240       0.10955025      -2.60756119       0.00000000
Si       0.10700901      -2.60232750      -2.61104815       0.00000000
Si      -2.60451469       2.72282463       0.10693339       0.00000000
Si      -3.42712997       0.92655891       1.32644582       0.00000000
Si       2.82323619       0.10976202      -2.60451864       0.00000000
