10
Lattice="16.28999089631971 0.0 0.0 0.0 16.28999089631971 0.0 0.0 0.0 34.185847837958455" Properties=species:S:1:pos:R:3:initial_magmoms:R:1 pbc="T T T"
Si      -1.17555156       1.56546900       1.32080516       0.00000000
Si       1.55418003      -1.19151576       1.32584757       0.00000000
Si       1.84732902       1.04099616      -1.21421978       0.00000000
Si      -1.60614513      -0.82204227      -1.67235351       0.00000000
Si      -0.41733351       0.71029287      -3.49945135       0.00000000
Si      -2.52136620      -2.58895341      -0.06995796       0.00000000
Si       0.48089709       2.59506772      -2.50156589       0.00000000
Si      -2.50657488       0.20289195       2.69401724       0.00000000
Si       0.21014100      -2.51545293       2.70317906       0.00000000
Si       2.80801548      -2.66901876      -0.16761331       0.00000000
