10
Lattice="16.28999089631971 0.0 0.0 0.0 16.28999089631971 0.0 0.0 0.0 34.185847837958455" Properties=species:S:1:pos:R:3:initial_magmoms:R:1 pbc="T T T"
Si      -1.33102332      -1.36257705       1.37321209       0.00000000
Si       1.17555156      -1.56546900      -1.32080516       0.00000000
Si       1.38714237       1.34999532       1.37786137       0.00000000
Si      -1.58050467       1.24300586      -1.45773665       0.00000000
Si      -2.69004915       2.71230848       0.01833388       0.00000000
Si      -2.69068446      -0.00973382       2.73445913       0.00000000
Si       2.74337235       2.68246520       0.02079868       0.00000000
Si      -2.70187569      -2.73307104      -0.00482021       0.00000000
Si       0.02510289       2.70597167       2.73589493       0.00000000
Si      -0.43059357      -2.38751127      -2.99315866       0.00000000
