10
Lattice="16.28999089631971 0.0 0.0 0.0 16.28999089631971 0.0 0.0 0.0 34.185847837958455" Properties=species:S:1:pos:R:3:initial_magmoms:R:1 pbc="T T T"
Si       1.35698958       1.35483930      -1.35878565       0.00000000
Si       1.35698958      -1.35731538       1.35670032       0.00000000
Si      -1.35801585       1.35799956       1.35673450       0.00000000
Si      -1.35873261      -1.35801585      -1.35827287       0.00000000
Si       2.71267596       0.00021177       2.71336645       0.00000000
Si      -0.00040725       2.71345788       2.71377668       0.00000000
Si       2.71723716      -0.00004887      -2.71022135       0.00000000
Si       2.71433754       2.71489140      -0.00027349       0.00000000
Si      -0.00154755      -2.71577106       2.71418691       0.00000000
Si       2.71539639      -2.71464705      -0.00037604       0.00000000
