10
Lattice="16.28999089631971 0.0 0.0 0.0 16.28999089631971 0.0 0.0 0.0 34.185847837958455" Properties=species:S:1:pos:R:3:initial_magmoms:R:1 pbc="T T T"
Si       1.35524965       1.35689200      -1.35683706       0.00000000
Si       1.35793575      -1.35708732       1.35731566       0.00000000
Si      -1.35736425       1.35792327       1.35724729       0.00000000
Si      -1.35734796      -1.36005210      -1.35851217       0.00000000
Si       0.00289962      -2.71494027      -2.70994786       0.00000000
Si       2.71360842      -0.00206883       2.71360575       0.00000000
Si      -0.00166158      -2.71467963       2.71363993       0.00000000
Si      -2.71474479      -0.00143352       2.71405016       0.00000000
Si      -2.71433754      -2.71489140       0.00027349       0.00000000
Si      -0.00167787       2.71531887       2.71463132       0.00000000
