10
Lattice="16.28999089631971 0.0 0.0 0.0 16.28999089631971 0.0 0.0 0.0 34.185847837958455" Properties=species:S:1:pos:R:3:initial_magmoms:R:1 pbc="T T T"
Si      -1.35760860      -1.35545832      -1.35704217       0.00000000
Si       1.35852084      -1.35571896       1.35659776       0.00000000
Si       1.35738054       1.35935679      -1.35680287       0.00000000
Si      -1.35697329       1.36285398       1.36121285       0.00000000
Si       2.69843850       0.00635310       2.71599876       0.00000000
Si       2.71308321      -2.71324611      -0.00041023       0.00000000
Si       0.00040725      -2.71345788      -2.71377668       0.00000000
Si       2.71474479       0.00143352      -2.71405016       0.00000000
Si      -2.71546155       0.00257382      -2.71405016       0.00000000
Si       2.71306692       2.71675239       0.00058116       0.00000000
