10
Lattice="16.28999089631971 0.0 0.0 0.0 16.28999089631971 0.0 0.0 0.0 34.185847837958455" Properties=species:S:1:pos:R:3:initial_magmoms:R:1 pbc="T T T"
Si       1.93692498      -1.22243418      -0.46058619       0.00000000
Si       0.08594604       1.43495352       1.84757518       0.00000000
Si      -0.79475230       1.30393305      -1.79185222       0.00000000
Si      -1.42887313      -1.83803328       0.54776015       0.00000000
Si      -2.76325219       1.82713527      -0.67072671       0.00000000
Si      -0.18082063      -0.26736777      -3.42039855       0.00000000
Si      -0.91511911      -0.09109368       3.32806252       0.00000000
Si      -1.98450874       2.58141114       1.45915536       0.00000000
Si       1.24416015      -3.44872332      -0.67982015       0.00000000
Si       0.36054005       3.36632850      -1.65206621       0.00000000
