10
Lattice="16.28999089631971 0.0 0.0 0.0 16.28999089631971 0.0 0.0 0.0 34.185847837958455" Properties=species:S:1:pos:R:3:initial_magmoms:R:1 pbc="T T T"
Si      -1.36446669       0.89811657       1.68519231       0.00000000
Si      -1.45357299      -0.09039321      -1.90770812       0.00000000
Si       1.59982461       1.70766671      -0.54581155       0.00000000
Si       0.59331438      -2.26667205       0.56912631       0.00000000
Si       1.52793684      -3.02733360      -1.52687756       0.00000000
Si      -0.58510422      -0.07192035       3.77497436       0.00000000
Si       0.33510159       3.45690809      -1.64851088       0.00000000
Si      -3.65858739       0.19855881       1.24627997       0.00000000
Si       2.52451017       2.55577298       1.45467701       0.00000000
Si      -2.97652509       1.80630266      -1.70378942       0.00000000
