10
Lattice="16.28999089631971 0.0 0.0 0.0 16.28999089631971 0.0 0.0 0.0 34.185847837958455" Properties=species:S:1:pos:R:3:initial_magmoms:R:1 pbc="T T T"
Si       0.79599456       1.89047079       1.19171932       0.00000000
Si      -1.38536676      -1.01532312       1.66710799       0.00000000
Si      -1.30903182       1.02009609      -1.79352732       0.00000000
Si       1.93157046      -1.34770428      -0.80962389       0.00000000
Si       0.38687121       0.42399612      -3.41161278       0.00000000
Si       1.42306182       0.78763779       3.34833474       0.00000000
Si      -3.50311237      -0.06025671      -1.29270437       0.00000000
Si       0.10151928      -1.22831487       3.53061378       0.00000000
Si      -3.32229174       0.20711106       2.12769417       0.00000000
Si       1.87926327       3.48969267      -0.62611415       0.00000000
