10
Lattice="16.28999089631971 0.0 0.0 0.0 16.28999089631971 0.0 0.0 0.0 34.185847837958455" Properties=species:S:1:pos:R:3:initial_magmoms:R:1 pbc="T T T"
Si      -1.70423278      -0.99012249       1.32623186       0.00000000
Si      -1.52452150       0.60460335      -1.91933131       0.00000000
Si       1.75888180      -1.81496664      -0.22514812       0.00000000
Si       1.19686702       1.90200411       1.23426504       0.00000000
Si      -0.26542879      -2.19844953       2.72430049       0.00000000
Si       0.22773094       1.46983041      -3.22933373       0.00000000
Si       2.44749268       0.53519166       2.71059880       0.00000000
Si       3.65182867      -0.87343722       1.23157461       0.00000000
Si      -3.19051609      -2.40391530      -0.25800074       0.00000000
Si       1.07800867      -3.61286625       1.36349104       0.00000000
