10
Lattice="16.28999089631971 0.0 0.0 0.0 16.28999089631971 0.0 0.0 0.0 34.185847837958455" Properties=species:S:1:pos:R:3:initial_magmoms:R:1 pbc="T T T"
Si       1.35644023       1.35593073       1.35635846       0.00000000
Si       1.35721075      -1.35738054      -1.35741822       0.00000000
Si      -1.35716656       1.35782037      -1.35755496       0.00000000
Si      -1.35910507      -1.35852084       1.35728148       0.00000000
Si      -2.71231537      -0.00102627       2.71521248       0.00000000
Si       2.71491709       0.00118917       2.71322970       0.00000000
Si       2.71431436      -2.71485882      -0.00034186       0.00000000
Si       2.71424920       2.71538010       0.00000000       0.00000000
Si      -2.71565482      -2.71505430      -0.00041023       0.00000000
Si      -2.71557337       2.71515204      -0.00047860       0.00000000
