10
Lattice="16.28999089631971 0.0 0.0 0.0 16.28999089631971 0.0 0.0 0.0 34.185847837958455" Properties=species:S:1:pos:R:3:initial_magmoms:R:1 pbc="T T T"
Si      -1.35222489       1.35555606      -1.35143569       0.00000000
Si      -1.35406566      -1.35904212       1.35840961       0.00000000
Si       1.35991743       1.35553977       1.35834124       0.00000000
Si       1.36078895      -1.35977517      -1.36063169       0.00000000
Si      -0.00818586       2.67949323      -2.72876718       0.00000000
Si      -2.67914313      -0.01146816      -2.73446596       0.00000000
Si      -2.71247247       2.71044423       0.00000000       0.00000000
Si      -2.71247247      -0.00171045       2.71548597       0.00000000
Si       2.71725236       2.71111212       0.00071790       0.00000000
Si      -2.71367793      -2.71541268      -0.00013674       0.00000000
