10
Lattice="10.86 0.0 0.0 0.0 10.86 0.0 0.0 0.0 10.86" Properties=species:S:1:pos:R:3:initial_magmoms:R:1 pbc="T T T"
Si       1.20258210      -1.20258210       1.49641026       0.00000000
Si       1.28268546       1.43231454      -1.34183988       0.00000000
Si      -1.43231454      -1.28268546      -1.34183988       0.00000000
Si      -1.43231454       1.43231454       1.37316012       0.00000000
Si       2.59520334      -2.59520334       0.02458704       0.00000000
Si       2.64018546       0.07481454      -2.69933988       0.00000000
Si      -0.07481454      -2.64018546      -2.69933988       0.00000000
Si       2.64018546       2.78981454       0.01566012       0.00000000
Si      -2.78981454      -2.64018546       0.01566012       0.00000000
Si      -0.07481454       2.78981454      -2.69933988       0.00000000
