10
Lattice="10.86 0.0 0.0 0.0 10.86 0.0 0.0 0.0 10.86" Properties=species:S:1:pos:R:3:initial_magmoms:R:1 pbc="T T T"
Si      -1.20258210       1.20258210      -1.49641026       0.00000000
Si       1.39262124      -1.39262124      -1.47182322       0.00000000
Si       0.08010336       2.63489664       2.59174986       0.00000000
Si      -2.63489664      -0.08010336       2.59174986       0.00000000
Si      -2.63489664       2.63489664      -0.12325014       0.00000000
Si       2.79510336      -0.08010336       2.59174986       0.00000000
Si       0.08010336      -2.79510336       2.59174986       0.00000000
Si       2.79510336       2.63489664      -0.12325014       0.00000000
Si      -2.63489664      -2.79510336      -0.12325014       0.00000000
Si       0.08010336       2.63489664      -2.83825014       0.00000000
