10
Lattice="16.28999089631971 0.0 0.0 0.0 16.28999089631971 0.0 0.0 0.0 34.40785480372833" Properties=species:S:1:pos:R:3:initial_magmoms:R:1 pbc="T T T"
Si       1.32791193       1.34847643      -1.37789772       0.00000000
Si      -1.29823155       1.40167957       1.36750655       0.00000000
Si      -1.38789171      -1.36361454      -1.37793213       0.00000000
Si       1.52578656      -1.30077817       1.60660686       0.00000000
Si      -2.18248533      -0.31011110       2.65635669       0.00000000
Si      -0.43924356      -2.04708352       2.92315535       0.00000000
Si       2.67822261      -2.72627878       0.00911809       0.00000000
Si       2.68472232       2.72058313      -0.00127309       0.00000000
Si       2.68555311      -0.00303971      -2.73845388       0.00000000
Si      -2.75237469       2.69331367      -0.01909637       0.00000000
