10
Lattice="16.28999089631971 0.0 0.0 0.0 16.28999089631971 0.0 0.0 0.0 34.40785480372833" Properties=species:S:1:pos:R:3:initial_magmoms:R:1 pbc="T T T"
Si       0.46543788      -0.42885054       2.30102658       0.00000000
Si      -1.43198874       1.94676903       0.24013255       0.00000000
Si       1.92246435       1.31028615      -0.99655526       0.00000000
Si      -1.58534280      -1.59198912      -1.17021180       0.00000000
Si      -3.04039818       0.17099613       0.82303635       0.00000000
Si       0.88979238       0.98756496      -3.20770846       0.00000000
Si      -1.34294760       0.75600261       3.13486700       0.00000000
Si      -1.06429086       2.93086422       2.32590347       0.00000000
Si      -0.45076059      -2.46958192       2.98137347       0.00000000
Si      -3.63276774      -0.41047542      -1.46150886       0.00000000
