10
Lattice="16.28999089631971 0.0 0.0 0.0 16.28999089631971 0.0 0.0 0.0 34.40785480372833" Properties=species:S:1:pos:R:3:initial_magmoms:R:1 pbc="T T T"
Si       1.35580041       1.35796698      -1.35814760       0.00000000
Si      -1.35922131      -1.35881406      -1.35911102       0.00000000
Si      -1.35653346       1.36067112       1.36017767       0.00000000
Si       1.35552348      -1.36256076       1.35976477       0.00000000
Si       2.71316466      -2.71407690      -0.00079138       0.00000000
Si       2.71213839       2.71521720      -0.00082579       0.00000000
Si       2.71318095       0.00037467      -2.71529738       0.00000000
Si      -0.00198738      -2.71481158      -2.71564146       0.00000000
Si      -0.00151497       2.71521720      -2.71577909       0.00000000
Si      -2.71803537      -2.71320213      -0.00292467       0.00000000
