10
Lattice="16.28999089631971 0.0 0.0 0.0 16.28999089631971 0.0 0.0 0.0 34.40785480372833" Properties=species:S:1:pos:R:3:initial_magmoms:R:1 pbc="T T T"
Si       1.35055503       1.34944731      -1.36674957       0.00000000
Si      -1.36213722      -1.36032903      -1.35756267       0.00000000
Si      -1.48439367       1.21197600       1.38082239       0.00000000
Si       1.34884458      -1.33278264       1.42864934       0.00000000
Si      -0.44665551      -2.25794061       2.66182754       0.00000000
Si      -2.43553419      -0.77149440       2.53895702       0.00000000
Si       2.68286526       2.71964808       0.00619342       0.00000000
Si       2.70673011      -2.71145421       0.01864907       0.00000000
Si       2.70653463      -0.00578295      -2.71856613       0.00000000
Si      -0.00578295       2.70746316      -2.71801560       0.00000000
