10
Lattice="16.28999089631971 0.0 0.0 0.0 16.28999089631971 0.0 0.0 0.0 34.40785480372833" Properties=species:S:1:pos:R:3:initial_magmoms:R:1 pbc="T T T"
Si      -0.82956825      -1.77241716      -1.27439884       0.00000000
Si       1.79550009       0.92515797      -1.23317821       0.00000000
Si       1.03267197       0.32272119       2.21115321       0.00000000
Si      -1.98887868       1.48644621      -0.12287052       0.00000000
Si       0.84556503       2.78783802       1.49608877       0.00000000
Si      -0.88979238      -0.98756496       3.20770846       0.00000000
Si       0.44665551       2.25794061      -2.66182754       0.00000000
Si      -2.28371139      -0.48078306      -2.66100175       0.00000000
Si      -1.77675030       2.65305456       1.87385282       0.00000000
Si       3.41516592       0.17612748       1.44100176       0.00000000
