10
Lattice="16.28999089631971 0.0 0.0 0.0 16.28999089631971 0.0 0.0 0.0 34.40785480372833" Properties=species:S:1:pos:R:3:initial_magmoms:R:1 pbc="T T T"
Si       2.04742494      -1.18151370       0.29129706       0.00000000
Si       0.59236956       0.58147155       2.28454520       0.00000000
Si      -2.14263089      -1.14943869       0.17850805       0.00000000
Si      -1.67608771       1.36914192       2.54910735       0.00000000
Si      -1.46844087      -0.05418054      -3.05225369       0.00000000
Si       2.20077900       2.35724445       1.70164141       0.00000000
Si       0.59961861       1.97042211      -3.05545362       0.00000000
Si      -3.60856799       0.78869664       0.95340778       0.00000000
Si       1.50325749      -3.34058120       1.30392079       0.00000000
Si       2.80873809      -2.08616745      -1.73174830       0.00000000
