10
Lattice="16.28999089631971 0.0 0.0 0.0 16.28999089631971 0.0 0.0 0.0 34.40785480372833" Properties=species:S:1:pos:R:3:initial_magmoms:R:1 pbc="T T T"
Si      -0.74274255       2.20916835       0.06802437       0.00000000
Si       1.95869331       0.04745277      -1.26861832       0.00000000
Si       0.49767579      -0.62739306       2.20513183       0.00000000
Si      -1.96516044      -0.85761963      -0.97845671       0.00000000
Si      -0.80223363       2.58258402      -2.35432437       0.00000000
Si      -1.56986730      -1.11935106       3.10651491       0.00000000
Si      -2.83159296       2.06338914       1.11495275       0.00000000
Si       3.46328658       1.28220219       0.10583862       0.00000000
Si       0.60268113       3.19036392       1.80971654       0.00000000
Si       1.18763874       1.44951678      -3.21159655       0.00000000
