10
Lattice="16.28999089631971 0.0 0.0 0.0 16.28999089631971 0.0 0.0 0.0 34.40785480372833" Properties=species:S:1:pos:R:3:initial_magmoms:R:1 pbc="T T T"
Si      -2.30931927      -0.03733668      -0.27467806       0.00000000
Si       0.73772523      -0.50200893      -2.16043600       0.00000000
Si       0.58191138       2.21052042       0.58025439       0.00000000
Si       0.53703243      -1.43718525       1.87540117       0.00000000
Si       2.86532955      -0.85123395      -1.31541302       0.00000000
Si      -1.32730920      -1.08957294       3.22026734       0.00000000
Si      -3.06582687      -1.25353179       1.62790534       0.00000000
Si       0.57884886      -3.53926314       0.88146092       0.00000000
Si      -0.68470128       2.71774215       2.46993483       0.00000000
Si      -3.16571715       2.15234883      -0.28847562       0.00000000
