10
Lattice="16.28999089631971 0.0 0.0 0.0 16.28999089631971 0.0 0.0 0.0 34.40785480372833" Properties=species:S:1:pos:R:3:initial_magmoms:R:1 pbc="T T T"
Si       0.68654042       1.44648684       1.67673011       0.00000000
Si      -2.10604518       0.87835680      -0.50362805       0.00000000
Si       1.34203373       0.22920030      -1.93950304       0.00000000
Si      -0.07548460      -2.30470010       0.56322249       0.00000000
Si       0.26334251      -1.55138141      -3.11976194       0.00000000
Si      -2.19039480      -2.40915158       1.52378711       0.00000000
Si       2.23967789       0.14996574       2.81253403       0.00000000
Si       1.79961983       3.07718100       0.50662154       0.00000000
Si      -0.13193108      -3.30925553      -1.56208307       0.00000000
Si      -1.68827184       3.07652940      -1.26135825       0.00000000
