10
Lattice="16.28999089631971 0.0 0.0 0.0 16.28999089631971 0.0 0.0 0.0 34.40785480372833" Properties=species:S:1:pos:R:3:initial_magmoms:R:1 pbc="T T T"
Si       1.35641943      -1.35567009       1.35993681       0.00000000
Si       1.35799956       1.35718844      -1.35721859       0.00000000
Si      -1.35742941      -1.35791811      -1.35776912       0.00000000
Si      -1.35839052       1.35535003       1.36017767       0.00000000
Si      -2.70601335      -0.00788436       2.71564146       0.00000000
Si      -0.01734885      -2.68908804       2.73666467       0.00000000
Si      -2.71482624      -0.00047241      -2.71467804       0.00000000
Si      -2.71596654      -2.71391400      -0.00086020       0.00000000
Si       0.00013032      -2.71507059      -2.71481567       0.00000000
Si      -0.00009774       2.71519018      -2.71519416       0.00000000
