10
Lattice="16.28999089631971 0.0 0.0 0.0 16.28999089631971 0.0 0.0 0.0 34.40785480372833" Properties=species:S:1:pos:R:3:initial_magmoms:R:1 pbc="T T T"
Si      -1.00092276      -0.68005863      -2.01499392       0.00000000
Si       0.31851837      -1.76762790       1.52475053       0.00000000
Si       2.20721355       0.78177339      -0.42624474       0.00000000
Si      -1.23250140       1.88199999       0.90220887       0.00000000
Si       1.95919830       3.08888490      -0.24061426       0.00000000
Si      -3.33899388      -0.70211529      -1.42844289       0.00000000
Si      -0.94809429      -1.26040617       3.41443097       0.00000000
Si       0.48930273       3.32405010       1.69510391       0.00000000
Si       2.48632641      -1.59223347       2.38453449       0.00000000
Si      -2.35105425       2.90941029      -0.95825929       0.00000000
