10
Lattice="16.28999089631971 0.0 0.0 0.0 16.28999089631971 0.0 0.0 0.0 34.40785480372833" Properties=species:S:1:pos:R:3:initial_magmoms:R:1 pbc="T T T"
Si       1.31502654      -1.44401565      -1.31240922       0.00000000
Si      -1.34377839      -1.36754550       1.37784267       0.00000000
Si       1.37226960       1.34894232       1.37619109       0.00000000
Si      -1.40817276       1.33555194      -1.54193038       0.00000000
Si      -2.70264132       2.70576900      -0.02019054       0.00000000
Si      -2.67581169      -2.73399405       0.01539408       0.00000000
Si       2.71365336       2.70782154       0.00267693       0.00000000
Si      -2.69863398      -0.01195686       2.73457955       0.00000000
Si       0.01578501       2.70457983       2.73457955       0.00000000
Si       0.01625742      -2.72373109       2.73588705       0.00000000
