10
Lattice="16.28999089631971 0.0 0.0 0.0 16.28999089631971 0.0 0.0 0.0 34.40785480372833" Properties=species:S:1:pos:R:3:initial_magmoms:R:1 pbc="T T T"
Si      -1.35624024      -1.35873261      -1.35759708       0.00000000
Si      -1.35718506       1.35788553       1.35852609       0.00000000
Si       1.35842310       1.35788553      -1.35807879       0.00000000
Si       1.35690813      -1.36176255       1.36079701       0.00000000
Si       2.71568961       2.71282257      -0.00251177       0.00000000
Si      -2.71458189      -2.71419093      -0.00017204       0.00000000
Si      -2.71456560       0.00026064      -2.71467804       0.00000000
Si       0.00053757      -2.71514389      -2.71447159       0.00000000
Si       2.71738377      -2.71227197       0.00013763       0.00000000
Si       2.71508688      -0.00063531      -2.71464363       0.00000000
