10
Lattice="16.28999089631971 0.0 0.0 0.0 16.28999089631971 0.0 0.0 0.0 34.40785480372833" Properties=species:S:1:pos:R:3:initial_magmoms:R:1 pbc="T T T"
Si       0.24801525      -2.30711151      -0.18563048       0.00000000
Si       2.06364978       1.18690357       0.00340638       0.00000000
Si      -0.93113640       1.06085807      -1.92553345       0.00000000
Si      -1.46989557       0.23516521       1.93571818       0.00000000
Si       0.92282850       3.05334824       0.76653862       0.00000000
Si      -1.08514206       3.08889302      -0.67663084       0.00000000
Si       1.11285135      -2.27182737      -2.37878837       0.00000000
Si      -3.19169970      -1.20688491       1.14282313       0.00000000
Si      -1.95919830      -3.08888490       0.24061426       0.00000000
Si       2.06231400      -2.81172684       1.29497475       0.00000000
