10
Lattice="16.28999089631971 0.0 0.0 0.0 16.28999089631971 0.0 0.0 0.0 34.40785480372833" Properties=species:S:1:pos:R:3:initial_magmoms:R:1 pbc="T T T"
Si       1.65595995       0.98550102       1.41492060       0.00000000
Si      -2.00728638      -0.18359970       1.31327974       0.00000000
Si       0.56187468       2.16276303      -0.89302196       0.00000000
Si       0.28217538      -1.61074121      -1.91300898       0.00000000
Si      -0.25314660       1.87258926       2.71932310       0.00000000
Si      -2.97292500      -1.94183546       0.14124432       0.00000000
Si      -1.20964653      -3.28481564      -1.06137969       0.00000000
Si      -2.57214213       2.19122166       1.71406265       0.00000000
Si      -1.32537069       3.09868869      -1.96496487       0.00000000
Si      -0.83207691      -0.61578643      -3.76370530       0.00000000
