10
Lattice="16.28999089631971 0.0 0.0 0.0 16.28999089631971 0.0 0.0 0.0 34.40785480372833" Properties=species:S:1:pos:R:3:initial_magmoms:R:1 pbc="T T T"
Si       0.57120885      -0.36435843       2.27652817       0.00000000
Si      -2.38184235       0.07631865       0.02996926       0.00000000
Si       0.99054603      -1.90687482      -1.10576585       0.00000000
Si       1.15800723       1.99383084      -0.80025833       0.00000000
Si      -0.04719213      -2.65044816       2.26627462       0.00000000
Si      -1.60275681      -0.36662274      -3.22271030       0.00000000
Si       0.61770051       3.68737182       0.88854894       0.00000000
Si      -3.04815222       2.30562144       0.57973827       0.00000000
Si       3.14094006      -1.15209396      -1.96410467       0.00000000
Si       1.00825326      -3.72769609       0.48267366       0.00000000
