10
Lattice="16.28999089631971 0.0 0.0 0.0 16.28999089631971 0.0 0.0 0.0 34.40785480372833" Properties=species:S:1:pos:R:3:initial_magmoms:R:1 pbc="T T T"
Si      -1.43405757       0.75419442       1.72118508       0.00000000
Si      -0.61840098      -2.28608973      -0.01025355       0.00000000
Si      -0.57120885       0.36435843      -2.27652817       0.00000000
Si       2.11017402       1.01936304       0.56580308       0.00000000
Si      -2.95305120       0.44067708      -2.24655891       0.00000000
Si       0.41933718      -1.54251639      -3.38229402       0.00000000
Si       0.11723913      -3.24229155       1.92715062       0.00000000
Si       2.59965594       0.04206078       2.76467268       0.00000000
Si      -1.39838247       3.08856771       1.77351946       0.00000000
Si       0.43704441      -3.36333766      -1.79385451       0.00000000
