10
Lattice="16.28999089631971 0.0 0.0 0.0 16.28999089631971 0.0 0.0 0.0 34.40785480372833" Properties=species:S:1:pos:R:3:initial_magmoms:R:1 pbc="T T T"
Si      -1.35744570      -1.35553977      -1.35718418       0.00000000
Si       1.35690813      -1.35721764       1.35756267       0.00000000
Si       1.35685926       1.35744570      -1.35780353       0.00000000
Si      -1.35806472       1.35806472       1.35704655       0.00000000
Si       2.71440270      -2.71437012      -0.00041289       0.00000000
Si      -2.71365336      -0.00100998       2.71515975       0.00000000
Si      -0.00133578      -2.71425609       2.71460922       0.00000000
Si      -2.71498914      -2.71425609      -0.00034408       0.00000000
Si      -2.71599912      -0.00324171      -2.71388666       0.00000000
Si       0.00060273       2.71520091       2.71474685       0.00000000
