10
Lattice="16.28999089631971 0.0 0.0 0.0 16.28999089631971 0.0 0.0 0.0 34.40785480372833" Properties=species:S:1:pos:R:3:initial_magmoms:R:1 pbc="T T T"
Si      -2.12760432       0.34922502      -0.84502298       0.00000000
Si       1.03162941      -0.60095439      -2.02937641       0.00000000
Si       1.00488123       1.52158374       1.57804833       0.00000000
Si      -0.13405041      -2.08308375       1.21869249       0.00000000
Si      -2.86532955       0.85123395       1.31541302       0.00000000
Si       3.13188282       0.29885634      -1.60918745       0.00000000
Si       2.45695554      -0.04711068       2.54129676       0.00000000
Si       3.61274733      -0.59802219       0.53934343       0.00000000
Si       0.99595431      -2.93532768      -2.08171079       0.00000000
Si      -2.65036671      -1.69438806      -2.02593562       0.00000000
