10
Lattice="16.28999089631971 0.0 0.0 0.0 16.28999089631971 0.0 0.0 0.0 34.40785480372833" Properties=species:S:1:pos:R:3:initial_magmoms:R:1 pbc="T T T"
Si      -2.16780804      -0.17539443      -0.85978396       0.00000000
Si       1.12049136      -1.71556506      -1.17740304       0.00000000
Si       0.07661187      -1.41379281       1.92945594       0.00000000
Si       1.53518589       1.86939153      -1.33017400       0.00000000
Si       2.75020812      -0.16397514      -1.81260680       0.00000000
Si      -3.43442070       0.33182730       1.02989649       0.00000000
Si      -0.27911286       2.37400686      -2.81077923       0.00000000
Si       1.40476815       3.46006116       0.55087006       0.00000000
Si      -2.48632641       1.59223347      -2.38453449       0.00000000
Si      -2.37459330       2.24725437       2.01289504       0.00000000
