10
Lattice="16.28999089631971 0.0 0.0 0.0 16.28999089631971 0.0 0.0 0.0 34.40785480372833" Properties=species:S:1:pos:R:3:initial_magmoms:R:1 pbc="T T T"
Si      -1.81420101      -1.03086378      -1.20487226       0.00000000
Si      -1.33954299       1.32579065       1.51384667       0.00000000
Si       1.35444834      -1.37432214       1.48686402       0.00000000
Si       1.41693678       1.45724135      -1.42969331       0.00000000
Si      -3.45540222       0.67178331      -0.97839960       0.00000000
Si       2.65129524       2.61576905       0.18604337       0.00000000
Si      -2.68232769       2.63839586       0.16148303       0.00000000
Si       2.87546193      -2.57572593       0.04743125       0.00000000
Si      -2.78089848      -2.73535164       0.07901080       0.00000000
Si       0.92018952      -2.13530949      -3.16281793       0.00000000
