10
Lattice="16.28999089631971 0.0 0.0 0.0 16.28999089631971 0.0 0.0 0.0 34.40785480372833" Properties=species:S:1:pos:R:3:initial_magmoms:R:1 pbc="T T T"
Si      -1.35754344      -1.35599589      -1.35794116       0.00000000
Si       1.35723393      -1.35746199       1.35739063       0.00000000
Si      -1.35736425       1.35725360       1.35790675       0.00000000
Si       1.35853713       1.35905508      -1.35666807       0.00000000
Si       2.71480995       2.71503705       0.00048171       0.00000000
Si       2.71585251       0.00125433       2.71409310       0.00000000
Si      -0.00149868       2.71524068      -2.71471245       0.00000000
Si       2.71495656      -2.71516833       0.00010322       0.00000000
Si       0.00060273      -2.71524978       2.71488448       0.00000000
Si      -2.71523349      -2.71500543       0.00030967       0.00000000
