10
Lattice="16.28999089631971 0.0 0.0 0.0 16.28999089631971 0.0 0.0 0.0 34.40785480372833" Properties=species:S:1:pos:R:3:initial_magmoms:R:1 pbc="T T T"
Si      -0.96177789      -1.85285718       1.07954705       0.00000000
Si       2.25789174      -0.69509430       0.36155794       0.00000000
Si      -0.34407738       1.95013196       1.35178215       0.00000000
Si      -0.16329096      -0.54708336      -2.47045095       0.00000000
Si       2.94813162       1.60311586      -0.40742364       0.00000000
Si       1.47530385      -2.29618953      -2.14801476       0.00000000
Si       1.89268623       2.68036379       1.37617733       0.00000000
Si       0.55118844      -1.98757548       2.94084099       0.00000000
Si      -2.47111155      -1.08027135      -2.85791802       0.00000000
Si      -1.49279931       1.34510995       3.39409592       0.00000000
