10
Lattice="16.28999089631971 0.0 0.0 0.0 16.28999089631971 0.0 0.0 0.0 34.40785480372833" Properties=species:S:1:pos:R:3:initial_magmoms:R:1 pbc="T T T"
Si       1.34680833       1.35492890      -1.34234751       0.00000000
Si       1.35431959      -1.35770372       1.35508530       0.00000000
Si      -1.35840681       1.35589001       1.35556701       0.00000000
Si      -1.34485353      -1.37931682      -1.36834266       0.00000000
Si      -0.10860543       2.58356956      -2.66741194       0.00000000
Si       2.55554329       0.00472247      -2.80390454       0.00000000
Si       2.71345366      -0.00066137       2.71282001       0.00000000
Si      -0.00175932       2.71406875       2.71312968       0.00000000
Si      -0.00127062      -2.71570494       2.71285442       0.00000000
Si      -2.71630863      -0.00043983       2.71330172       0.00000000
