10
Lattice="16.28999089631971 0.0 0.0 0.0 16.28999089631971 0.0 0.0 0.0 34.40785480372833" Properties=species:S:1:pos:R:3:initial_magmoms:R:1 pbc="T T T"
Si       1.35540883       1.35446789      -1.35790675       0.00000000
Si      -1.36047564       1.35050942       1.36065938       0.00000000
Si       1.35157358      -1.35833601       1.36237977       0.00000000
Si      -1.35936792      -1.35995038      -1.35770030       0.00000000
Si      -0.00229689       2.71163666      -2.71478126       0.00000000
Si       2.71411992       2.71235342       0.00079138       0.00000000
Si       2.71291609      -0.00309347      -2.71509093       0.00000000
Si      -2.71738377       2.71227197      -0.00013763       0.00000000
Si      -2.71684620      -0.00287193      -2.71460922       0.00000000
Si      -2.71580364      -2.71665465      -0.00099783       0.00000000
