10
Lattice="16.28999089631971 0.0 0.0 0.0 16.28999089631971 0.0 0.0 0.0 34.40785480372833" Properties=species:S:1:pos:R:3:initial_magmoms:R:1 pbc="T T T"
Si       1.36047564      -1.35050942      -1.36065938       0.00000000
Si      -1.35690813       1.36176255      -1.36079701       0.00000000
Si      -1.34871426      -1.35992992       1.37438812       0.00000000
Si       1.37626065       1.37710773       1.36396253       0.00000000
Si      -2.53351854       0.15781752       2.74461289       0.00000000
Si       2.71204922      -2.70884543       0.00172039       0.00000000
Si      -2.71344159      -2.70893258      -0.00099783       0.00000000
Si       0.00110772      -2.71045980      -2.71835968       0.00000000
Si      -2.71314837       0.00302994      -2.71839409       0.00000000
Si       2.70736526       2.72591973      -0.00633105       0.00000000
