10
Lattice="16.28999089631971 0.0 0.0 0.0 16.28999089631971 0.0 0.0 0.0 34.40785480372833" Properties=species:S:1:pos:R:3:initial_magmoms:R:1 pbc="T T T"
Si       1.33110461       1.34881200      -1.37029358       0.00000000
Si      -1.37626065      -1.37710773      -1.36396253       0.00000000
Si       1.69702282      -1.00462059       1.34937360       0.00000000
Si      -1.34957763       1.37337732       1.45789603       0.00000000
Si      -0.14364522      -2.18804022       2.51597257       0.00000000
Si      -2.06457831      -0.54076284       2.72434665       0.00000000
Si       2.68463828       2.71153566       0.02862735       0.00000000
Si       2.70440131      -2.71008096       0.00068816       0.00000000
Si       2.69833491      -0.01526373      -2.72383053       0.00000000
Si      -0.01747917       2.69747739      -2.72727132       0.00000000
