10
Lattice="16.28999089631971 0.0 0.0 0.0 16.28999089631971 0.0 0.0 0.0 34.40785480372833" Properties=species:S:1:pos:R:3:initial_magmoms:R:1 pbc="T T T"
Si       1.16647803       0.08816148       2.06416277       0.00000000
Si      -1.17035505      -1.89121103      -1.03794793       0.00000000
Si       1.84066804       1.18341963      -1.16659897       0.00000000
Si      -1.92093309       1.64727738       0.20837409       0.00000000
Si       0.14364522       2.18804022      -2.51597257       0.00000000
Si      -0.29945907       2.02629681       2.83906250       0.00000000
Si      -2.58132969      -0.54899743      -2.50554698       0.00000000
Si       2.84804653      -0.52204074      -2.51528441       0.00000000
Si      -1.20593241       3.56141754      -1.05807653       0.00000000
Si       3.30910892       1.23760017       1.88565472       0.00000000
