10
Lattice="16.28999089631971 0.0 0.0 0.0 16.28999089631971 0.0 0.0 0.0 34.40785480372833" Properties=species:S:1:pos:R:3:initial_magmoms:R:1 pbc="T T T"
Si      -1.05204078      -1.30605075      -1.57526129       0.00000000
Si       2.10604518      -0.87835680       0.50362805       0.00000000
Si       0.41777334       2.19817260      -0.75773020       0.00000000
Si      -1.47219246      -0.19834704       1.85227908       0.00000000
Si      -1.10398959       2.06539281       2.30608453       0.00000000
Si      -1.38101733      -3.07393019       0.02274360       0.00000000
Si      -1.59347151       3.04269507       0.10721494       0.00000000
Si       2.79258560       0.56813004       2.18035816       0.00000000
Si       0.79856596       1.81604178      -3.10352142       0.00000000
Si       3.44807891      -0.64915650      -1.43587499       0.00000000
