10
Lattice="16.28999089631971 0.0 0.0 0.0 16.28999089631971 0.0 0.0 0.0 34.40785480372833" Properties=species:S:1:pos:R:3:initial_magmoms:R:1 pbc="T T T"
Si      -1.35749327      -1.35635427       1.35659925       0.00000000
Si       1.35821982       1.35881406       1.35587668       0.00000000
Si      -1.35594572       1.36091547      -1.36155398       0.00000000
Si       1.36311659      -1.35816246      -1.36096905       0.00000000
Si      -0.00892562      -2.71549413      -2.69887794       0.00000000
Si       2.71245639      -2.71360449      -0.00103224       0.00000000
Si       0.00021245      -2.71352304       2.71347376       0.00000000
Si      -2.71415705       0.00216657       2.71316409       0.00000000
Si      -2.71414076      -2.71453302      -0.00096342       0.00000000
Si       2.71550262       0.00143352       2.71323291       0.00000000
