10
Lattice="16.28999089631971 0.0 0.0 0.0 16.28999089631971 0.0 0.0 0.0 34.40785480372833" Properties=species:S:1:pos:R:3:initial_magmoms:R:1 pbc="T T T"
Si       1.35694071      -1.35705474      -1.35773471       0.00000000
Si      -1.35728280       1.35738054      -1.35735622       0.00000000
Si      -1.35657907      -1.35707103       1.35893898       0.00000000
Si       1.35783666       1.35770634       1.35838846       0.00000000
Si       2.71459818       0.00035838      -2.71347376       0.00000000
Si      -2.71550262      -0.00143352      -2.71323291       0.00000000
Si      -0.00061902       2.71590138      -2.71337054       0.00000000
Si      -0.00304623      -2.71503801      -2.71426514       0.00000000
Si      -2.71529017      -2.71495656       0.00024086       0.00000000
Si       2.71495656       2.71538010       0.00027526       0.00000000
