10
Lattice="16.28999089631971 0.0 0.0 0.0 16.28999089631971 0.0 0.0 0.0 34.40785480372833" Properties=species:S:1:pos:R:3:initial_magmoms:R:1 pbc="T T T"
Si       1.87853022       1.19654937       0.52303409       0.00000000
Si       0.09669744      -2.32117839       0.17506726       0.00000000
Si      -1.15579179       0.55091151       2.00195333       0.00000000
Si      -0.48086451       0.89687853      -2.14853088       0.00000000
Si      -2.60786610       2.11960593       1.03870490       0.00000000
Si      -2.15879967      -2.86712145      -0.38719181       0.00000000
Si      -2.58111792      -0.00293220      -2.56871984       0.00000000
Si      -3.61274733       0.59802219      -0.53934343       0.00000000
Si       1.41692049      -3.04943913      -1.57756662       0.00000000
Si       1.15729047       3.27492531       1.41416362       0.00000000
