10
Lattice="16.28999089631971 0.0 0.0 0.0 16.28999089631971 0.0 0.0 0.0 34.40785480372833" Properties=species:S:1:pos:R:3:initial_magmoms:R:1 pbc="T T T"
Si       1.77495907      -0.60681879       1.48230570       0.00000000
Si       1.66820435       0.38038779      -1.68006767       0.00000000
Si      -1.07725770       2.11965480       0.97068053       0.00000000
Si      -1.27562103      -2.13205149      -0.67232986       0.00000000
Si       0.05735709      -1.63719387       2.74258768       0.00000000
Si       0.13655907       1.20133863      -3.31313419       0.00000000
Si      -0.95399127      -3.24537525       1.41032787       0.00000000
Si      -2.60284878       1.14655536       2.52271104       0.00000000
Si       2.42179262      -1.82444742      -2.40693401       0.00000000
Si      -2.63117709       2.84473899      -0.82898891       0.00000000
