10
Lattice="16.28999089631971 0.0 0.0 0.0 16.28999089631971 0.0 0.0 0.0 34.40785480372833" Properties=species:S:1:pos:R:3:initial_magmoms:R:1 pbc="T T T"
Si      -1.35563751       1.35733167      -1.35567024       0.00000000
Si       1.35835047      -1.35736425      -1.35721859       0.00000000
Si       1.37449874       1.35565380       1.35818201       0.00000000
Si      -1.35418770      -1.36453185       1.37111937       0.00000000
Si      -2.68856676       0.02249649       2.66155228       0.00000000
Si      -2.71067229      -2.71565703       0.00395691       0.00000000
Si      -2.71363707      -0.00004887      -2.71347376       0.00000000
Si       2.71659275      -2.71151937       0.00529881       0.00000000
Si       0.00133487       2.71500543      -2.71395547       0.00000000
Si       0.00009533      -2.71480995      -2.71447159       0.00000000
