10
Lattice="16.28999089631971 0.0 0.0 0.0 16.28999089631971 0.0 0.0 0.0 34.40785480372833" Properties=species:S:1:pos:R:3:initial_magmoms:R:1 pbc="T T T"
Si      -2.10025341      -0.89981073      -0.42018896       0.00000000
Si      -0.07095924       2.34387036       0.26043320       0.00000000
Si       1.08631494      -0.59184828      -2.01506273       0.00000000
Si       0.48086451      -0.89687853       2.14853088       0.00000000
Si      -3.13188282      -0.29885634       1.60918745       0.00000000
Si       2.35939473       0.29967084       2.67156497       0.00000000
Si      -0.65537928       0.06335181      -3.58168765       0.00000000
Si       1.40830308      -2.96901540      -1.62790534       0.00000000
Si      -2.81663874      -0.08364915      -2.51604138       0.00000000
Si      -0.49728483       2.77431732       2.55203202       0.00000000
