10
Lattice="16.28999089631971 0.0 0.0 0.0 16.28999089631971 0.0 0.0 0.0 34.40785480372833" Properties=species:S:1:pos:R:3:initial_magmoms:R:1 pbc="T T T"
Si      -1.35540883      -1.35446789       1.35790675       0.00000000
Si      -1.35770572       1.35716877      -1.35687451       0.00000000
Si       1.35750726      -1.35756136      -1.35718418       0.00000000
Si       1.35871110       1.35788553       1.35869813       0.00000000
Si       2.71224394      -0.00008145      -2.71450600       0.00000000
Si      -0.00021245       2.71352304      -2.71347376       0.00000000
Si      -2.71435321      -0.00100998      -2.71443718       0.00000000
Si      -2.71477675      -2.71441827       0.00020645       0.00000000
Si      -0.00162681      -2.71460371      -2.71491889       0.00000000
Si      -2.71436950       2.71568961      -0.00030967       0.00000000
