10
Lattice="16.28999089631971 0.0 0.0 0.0 16.28999089631971 0.0 0.0 0.0 34.40785480372833" Properties=species:S:1:pos:R:3:initial_magmoms:R:1 pbc="T T T"
Si       1.66426785       1.59431859      -0.41089883       0.00000000
Si       0.21719457      -0.35973207       2.32635077       0.00000000
Si       0.72123975      -2.07837594      -0.89112953       0.00000000
Si      -2.13543981       0.39627054      -1.01066248       0.00000000
Si       3.27604510      -0.22841838      -0.65880756       0.00000000
Si       0.60717717       2.57914683      -2.31382631       0.00000000
Si      -2.31308226      -2.72401380       0.58778971       0.00000000
Si      -0.90539820      -2.47699224       2.51910368       0.00000000
Si      -1.70911422      -0.03417642      -3.30226130       0.00000000
Si      -1.15729047      -3.27492531      -1.41416362       0.00000000
