10
Lattice="16.28999089631971 0.0 0.0 0.0 16.28999089631971 0.0 0.0 0.0 34.40785480372833" Properties=species:S:1:pos:R:3:initial_magmoms:R:1 pbc="T T T"
Si      -1.30292307      -1.35941679      -1.54040065       0.00000000
Si       0.56824407       1.93008060      -1.37076983       0.00000000
Si       1.21349097      -1.48413303       1.50233380       0.00000000
Si      -1.49472153       1.20694778       1.52899302       0.00000000
Si       2.40567529       2.59098707       0.09343114       0.00000000
Si      -2.41619796       0.29682009      -2.90862976       0.00000000
Si      -2.69951364      -2.68193673       0.06657924       0.00000000
Si      -2.92368033       2.50955825       0.20519136       0.00000000
Si       2.56766957      -0.13460427       2.89145193       0.00000000
Si      -0.14986800       2.58626460       2.89733568       0.00000000
