10
Lattice="16.28999089631971 0.0 0.0 0.0 16.28999089631971 0.0 0.0 0.0 34.40785480372833" Properties=species:S:1:pos:R:3:initial_magmoms:R:1 pbc="T T T"
Si       1.63923012      -1.05316479      -1.35174774       0.00000000
Si      -1.08044402       1.69155360      -1.31754631       0.00000000
Si       1.93406283       0.91406448       1.18638350       0.00000000
Si      -2.06805948      -2.02460265       0.00319993       0.00000000
Si       0.29453949      -2.39904459      -2.71791238       0.00000000
Si      -2.43397770       0.32882994      -2.71646725       0.00000000
Si      -0.59961861      -1.97042211       3.05545362       0.00000000
Si       3.09337326      -2.34479889       0.03485518       0.00000000
Si       3.00745980       0.32522985      -2.71013620       0.00000000
Si      -2.47761845       3.22309053       0.33083171       0.00000000
