10
Lattice="16.28999089631971 0.0 0.0 0.0 16.28999089631971 0.0 0.0 0.0 34.40785480372833" Properties=species:S:1:pos:R:3:initial_magmoms:R:1 pbc="T T T"
Si      -1.65812489       0.66495780      -1.51425613       0.00000000
Si       1.85391603      -1.21404483      -0.79255097       0.00000000
Si      -1.11549196      -1.43553996       1.49533180       0.00000000
Si       0.98748351       1.70696394       1.30085849       0.00000000
Si      -3.14093096       1.60497225       0.08388640       0.00000000
Si       0.71645049      -2.80346013       2.08291506       0.00000000
Si       3.07633392       1.85274315       0.25393011       0.00000000
Si       1.16163990       0.57498813       3.39956677       0.00000000
Si       1.57525929      -3.38890644       0.01641256       0.00000000
Si      -1.01009892      -0.27727209       3.61760947       0.00000000
