10
Lattice="16.28999089631971 0.0 0.0 0.0 16.28999089631971 0.0 0.0 0.0 34.40785480372833" Properties=species:S:1:pos:R:3:initial_magmoms:R:1 pbc="T T T"
Si       0.36769788       0.98409519       2.08577092       0.00000000
Si       0.54503082       1.69385049      -1.57398820       0.00000000
Si       1.43198874      -1.94676903      -0.24013255       0.00000000
Si      -1.60840944      -1.77577290       0.58290379       0.00000000
Si       0.08904114      -1.19076642       2.89473444       0.00000000
Si       0.33290244       0.52724214      -3.57071154       0.00000000
Si       3.35445309      -0.63648288      -1.23668781       0.00000000
Si      -2.20077900      -2.35724445      -1.70164141       0.00000000
Si       1.89742662      -2.37561957       2.06089402       0.00000000
Si      -0.15335406      -3.53875815      -1.41034435       0.00000000
