10
Lattice="16.28999089631971 0.0 0.0 0.0 16.28999089631971 0.0 0.0 0.0 34.40785480372833" Properties=species:S:1:pos:R:3:initial_magmoms:R:1 pbc="T T T"
Si      -1.10892220       2.00974617       0.36035366       0.00000000
Si       2.17173882       0.85226022      -0.21804270       0.00000000
Si      -0.27122850      -1.25779977       1.99183742       0.00000000
Si      -0.10539304      -1.15826787      -2.12227767       0.00000000
Si       1.72654941      -2.52618804      -1.53469441       0.00000000
Si      -1.16867555      -3.14555013       0.89016611       0.00000000
Si       3.25930809      -1.19850417      -0.32518882       0.00000000
Si       1.99758243       1.98423603      -2.31675097       0.00000000
Si      -1.51448027       0.32151573       3.36254390       0.00000000
Si      -2.82149546       1.58636907       1.86174125       0.00000000
