10
Lattice="16.28999089631971 0.0 0.0 0.0 16.28999089631971 0.0 0.0 0.0 34.40785480372833" Properties=species:S:1:pos:R:3:initial_magmoms:R:1 pbc="T T T"
Si       1.11549196       1.43553996      -1.49533180       0.00000000
Si       1.83194245      -1.36792017       0.58758326       0.00000000
Si       0.10539304       1.15826787       2.12227767       0.00000000
Si      -1.65594922      -1.36857177      -1.18039653       0.00000000
Si       0.71886304      -2.99861433       1.75769184       0.00000000
Si       2.27713186       2.01052809       1.90423497       0.00000000
Si       2.69075125      -1.95336648      -1.47891924       0.00000000
Si      -0.54263293       2.10049776      -3.00958793       0.00000000
Si      -3.66719407      -0.52404930      -0.31545139       0.00000000
Si       2.96940799       0.22149513      -2.28788277       0.00000000
