10
Lattice="16.28999089631971 0.0 0.0 0.0 16.28999089631971 0.0 0.0 0.0 34.40785480372833" Properties=species:S:1:pos:R:3:initial_magmoms:R:1 pbc="T T T"
Si      -1.34933980       1.35544203      -1.35993681       0.00000000
Si      -1.35473667      -1.35747991       1.35732181       0.00000000
Si       1.35777150      -1.35186475      -1.36430661       0.00000000
Si       1.35998694       1.35798327       1.35653043       0.00000000
Si       0.02795364       2.68527618      -2.70442449       0.00000000
Si      -2.72138201      -0.00188964      -2.69784571       0.00000000
Si      -2.71245639       2.71360449       0.00103224       0.00000000
Si      -2.71224394       0.00008145       2.71450600       0.00000000
Si      -2.71387075      -2.71452226      -0.00041289       0.00000000
Si       0.00410508      -2.71495215       2.71433396       0.00000000
