10
Lattice="16.28999089631971 0.0 0.0 0.0 16.28999089631971 0.0 0.0 0.0 34.40785480372833" Properties=species:S:1:pos:R:3:initial_magmoms:R:1 pbc="T T T"
Si       1.34040636       1.35185823       1.38161377       0.00000000
Si      -1.35824228       1.35415512      -1.36251740       0.00000000
Si       1.35760860      -1.36076886      -1.36145076       0.00000000
Si      -1.37050376      -1.34874684       1.39155765       0.00000000
Si       2.59514361      -0.14276556       2.73735283       0.00000000
Si       2.71215468       2.71420722      -0.00065375       0.00000000
Si      -2.71659275       2.71151937      -0.00529881       0.00000000
Si      -0.00008145       2.71202436      -2.71921988       0.00000000
Si       2.71740006      -2.71507059      -0.00103224       0.00000000
Si       2.71472850      -0.00309510      -2.71956396       0.00000000
