10
Lattice="16.28999089631971 0.0 0.0 0.0 16.28999089631971 0.0 0.0 0.0 34.40785480372833" Properties=species:S:1:pos:R:3:initial_magmoms:R:1 pbc="T T T"
Si       1.91314647      -1.33224507      -0.24391742       0.00000000
Si      -1.64739527      -1.59627339      -0.62405561       0.00000000
Si       0.70464024       1.72252089       1.55575202       0.00000000
Si      -0.39960510       1.51853751      -1.89253630       0.00000000
Si       0.50937201      -1.88752230       2.43576781       0.00000000
Si       2.66965407      -0.11604996      -2.14650081       0.00000000
Si       1.81325619       2.07363555      -2.16029837       0.00000000
Si      -2.95441046      -0.33142005      -2.12485826       0.00000000
Si       2.04897249       3.03135723      -0.01476098       0.00000000
Si      -1.50060532       1.93031613       2.86793071       0.00000000
