10
Lattice="16.28999089631971 0.0 0.0 0.0 16.28999089631971 0.0 0.0 0.0 34.40785480372833" Properties=species:S:1:pos:R:3:initial_magmoms:R:1 pbc="T T T"
Si      -1.70901226      -1.09292868       1.33654776       0.00000000
Si       0.96090800       1.58881257       1.58826544       0.00000000
Si      -0.19825728       0.74826486      -2.37087456       0.00000000
Si       1.82496381      -1.46199492      -1.09210592       0.00000000
Si      -1.68586417       2.58506010      -2.08817947       0.00000000
Si       2.72501889       2.62166373       0.51711667       0.00000000
Si       2.67639324      -2.69532711       0.68123122       0.00000000
Si      -0.38106775      -2.35810782       3.04392496       0.00000000
Si       2.34370257       0.34106373       3.07385293       0.00000000
Si       3.61518594       0.06871122      -1.81463687       0.00000000
