10
Lattice="16.28999089631971 0.0 0.0 0.0 16.28999089631971 0.0 0.0 0.0 34.40785480372833" Properties=species:S:1:pos:R:3:initial_magmoms:R:1 pbc="T T T"
Si       1.35141840      -1.34959881      -1.35532616       0.00000000
Si       1.34469063       1.34587980       1.36616464       0.00000000
Si      -1.35522049      -1.33101843       1.37242687       0.00000000
Si      -1.36128688       1.36379880      -1.35209182       0.00000000
Si      -2.36259897       0.37444194       2.72111231       0.00000000
Si      -0.29453949       2.39904459       2.71791238       0.00000000
Si       0.11331324      -2.62087171       2.69093660       0.00000000
Si      -0.00364896      -2.70912033      -2.71096199       0.00000000
Si       2.70917361      -2.71104841       0.00732888       0.00000000
Si       2.71023246       0.00478926      -2.71151251       0.00000000
