10
Lattice="16.28999089631971 0.0 0.0 0.0 16.28999089631971 0.0 0.0 0.0 34.40785480372833" Properties=species:S:1:pos:R:3:initial_magmoms:R:1 pbc="T T T"
Si       1.86750189      -0.36054657       1.40191442       0.00000000
Si      -1.60852347       0.46394313       1.73257409       0.00000000
Si       0.54416745       2.15906750      -1.01262373       0.00000000
Si      -0.73441836      -1.98734742      -1.38801364       0.00000000
Si       1.30548060       1.25441375      -3.03566909       0.00000000
Si      -0.52983225       2.24452484       2.91283298       0.00000000
Si      -1.91866715      -1.00393641      -3.07578868       0.00000000
Si       1.67874966       1.28147470       3.13896153       0.00000000
Si       3.62623545      -1.12971150      -0.35422906       0.00000000
Si       1.53977967      -2.46539376       2.47134555       0.00000000
