10
Lattice="16.28999089631971 0.0 0.0 0.0 16.28999089631971 0.0 0.0 0.0 34.376317263855086" Properties=species:S:1:pos:R:3:initial_magmoms:R:1 pbc="T T T"
Si      -1.34914499      -1.33308703      -1.37319714       0.00000000
Si      -1.44289394       1.21982778       1.41737073       0.00000000
Si       1.36471104       1.38088701      -1.37089392       0.00000000
Si       1.24724385      -1.51132823       1.48017630       0.00000000
Si       0.30939597       2.03318748       2.79194292       0.00000000
Si       2.28115386       0.27567893       2.71009286       0.00000000
Si       2.71184517      -2.69148986      -0.00367827       0.00000000
Si      -2.72579660      -2.68973054       0.00051565       0.00000000
Si       0.00318144      -2.69285822      -2.73154370       0.00000000
Si      -2.71015820       0.02101899      -2.73085617       0.00000000
