10
Lattice="16.28999089631971 0.0 0.0 0.0 16.28999089631971 0.0 0.0 0.0 34.376317263855086" Properties=species:S:1:pos:R:3:initial_magmoms:R:1 pbc="T T T"
Si      -0.51986277       1.72102221      -1.43435264       0.00000000
Si       0.98984556      -1.47049830      -1.49939267       0.00000000
Si       1.45963287       1.22202693       1.39885705       0.00000000
Si      -1.34612252      -1.46225556       1.29200164       0.00000000
Si      -2.44061341       2.55870453      -0.08580334       0.00000000
Si       2.33636067      -2.76411978       0.02640103       0.00000000
Si       3.08234493       2.11781403      -0.07260282       0.00000000
Si       0.02484225       2.53479222       2.80046967       0.00000000
Si       2.07936963       2.36983662      -2.26457554       0.00000000
Si      -2.71061432      -0.18396297       2.79073085       0.00000000
