10
Lattice="16.28999089631971 0.0 0.0 0.0 16.28999089631971 0.0 0.0 0.0 34.376317263855086" Properties=species:S:1:pos:R:3:initial_magmoms:R:1 pbc="T T T"
Si      -0.98984556       1.47049830       1.49939267       0.00000000
Si       1.34651511      -1.29362148       1.52579369       0.00000000
Si       0.67207653       0.56594718      -2.27227584       0.00000000
Si       1.94527035      -1.41605712      -2.06529592       0.00000000
Si       1.65084489      -2.84174163      -0.16070937       0.00000000
Si      -1.50970833       3.19152051       0.06504003       0.00000000
Si      -2.33596808       0.00824274       2.79139431       0.00000000
Si      -0.50859009      -3.74151978      -0.73654739       0.00000000
Si       0.46978731       2.69252523       2.89824972       0.00000000
Si       2.26251810       2.30656626      -2.34515367       0.00000000
