10
Lattice="16.28999089631971 0.0 0.0 0.0 16.28999089631971 0.0 0.0 0.0 34.376317263855086" Properties=species:S:1:pos:R:3:initial_magmoms:R:1 pbc="T T T"
Si       1.35089712       1.36225125       1.34848055       0.00000000
Si       1.35365013      -1.35669962      -1.35941223       0.00000000
Si      -1.36031274       1.35933534      -1.35958411       0.00000000
Si      -1.35653346      -1.36958501       1.38485071       0.00000000
Si      -0.15182280       2.56857462       2.68767949       0.00000000
Si       2.62068633      -0.03635928       2.70844280       0.00000000
Si      -2.71313208      -2.71113248       0.00168444       0.00000000
Si       2.71591767      -2.71247138       0.00168444       0.00000000
Si      -0.00182448      -2.71293375      -2.71652124       0.00000000
Si       2.71336014       0.00169416      -2.71679625       0.00000000
