10
Lattice="16.28999089631971 0.0 0.0 0.0 16.28999089631971 0.0 0.0 0.0 34.376317263855086" Properties=species:S:1:pos:R:3:initial_magmoms:R:1 pbc="T T T"
Si      -1.35567009      -1.35653474      -1.35662774       0.00000000
Si      -1.35373158       1.35931091       1.36095916       0.00000000
Si       1.35967743       1.35862672      -1.35676525       0.00000000
Si       1.36288656      -1.35426508       1.36202483       0.00000000
Si      -2.71313534       0.00170230      -2.71397739       0.00000000
Si       0.00179190      -2.71376643      -2.71401176       0.00000000
Si      -2.71526118      -2.71443432       0.00030939       0.00000000
Si       0.00184077       2.71636564      -2.71387426       0.00000000
Si       2.71437012      -2.71590042      -0.00041252       0.00000000
Si      -2.71437012       2.71644709       0.00075628       0.00000000
