10
Lattice="16.28999089631971 0.0 0.0 0.0 16.28999089631971 0.0 0.0 0.0 34.376317263855086" Properties=species:S:1:pos:R:3:initial_magmoms:R:1 pbc="T T T"
Si      -0.04929354      -1.58481500      -1.70943208       0.00000000
Si      -1.19648421       1.80771759      -0.97982872       0.00000000
Si      -1.08049941      -0.30867921       2.10259424       0.00000000
Si       2.34611838       0.42251373       0.17552557       0.00000000
Si      -0.45950832       1.94347845       2.64051516       0.00000000
Si       0.64959633      -0.17919000      -3.50212365       0.00000000
Si      -0.96643683       3.40866621       0.73152844       0.00000000
Si      -2.30422050      -1.97553554      -2.01548461       0.00000000
Si      -0.27453537       2.06461089      -3.18128931       0.00000000
Si       0.97845885      -3.57015617      -0.88054986       0.00000000
