10
Lattice="16.28999089631971 0.0 0.0 0.0 16.28999089631971 0.0 0.0 0.0 34.376317263855086" Properties=species:S:1:pos:R:3:initial_magmoms:R:1 pbc="T T T"
Si      -2.11100481      -1.05653260       0.10886986       0.00000000
Si       1.11035898       0.34634984       2.10496621       0.00000000
Si       1.56928086      -1.52459317      -1.00708915       0.00000000
Si      -0.33788718       2.18883354      -0.96686884       0.00000000
Si      -2.09144052      -2.11807045       2.27781043       0.00000000
Si       1.79646120       3.24173769      -0.94160223       0.00000000
Si       3.34840950       1.09174440       1.77918167       0.00000000
Si       3.11868792      -0.34578213      -2.39379619       0.00000000
Si       0.62007885      -2.76238882      -2.79589620       0.00000000
Si      -2.76960951      -2.23930063      -1.87213528       0.00000000
