10
Lattice="16.28999089631971 0.0 0.0 0.0 16.28999089631971 0.0 0.0 0.0 34.376317263855086" Properties=species:S:1:pos:R:3:initial_magmoms:R:1 pbc="T T T"
Si      -1.75228991      -0.81335970      -1.37457219       0.00000000
Si       0.82660347       1.91935296      -1.34174279       0.00000000
Si       1.97175789      -1.75750855      -0.08185006       0.00000000
Si       2.09505690      -0.26567361       1.85996606       0.00000000
Si      -2.51140391       0.31038966       2.00159657       0.00000000
Si      -1.10766787      -1.48297644       2.67523526       0.00000000
Si      -1.74127787       2.48898168       1.51613394       0.00000000
Si      -0.30939597      -2.03318748      -2.79194292       0.00000000
Si       2.40300306       0.71666226      -2.78303945       0.00000000
Si      -3.14857097      -2.22639177       0.07672798       0.00000000
