10
Lattice="16.28999089631971 0.0 0.0 0.0 16.28999089631971 0.0 0.0 0.0 34.376317263855086" Properties=species:S:1:pos:R:3:initial_magmoms:R:1 pbc="T T T"
Si       1.35653346      -1.35482301       1.35645586       0.00000000
Si      -1.35856971      -1.35586557      -1.35800280       0.00000000
Si       1.35682668       1.35912357      -1.35755590       0.00000000
Si      -1.35850455       1.36202319       1.36071853       0.00000000
Si       2.69280216      -0.00091224       2.72958425       0.00000000
Si       2.71309950      -2.71363707      -0.00041252       0.00000000
Si       2.71292031       2.71538010      -0.00079066       0.00000000
Si      -0.00076563      -2.71347417      -2.71504305       0.00000000
Si       2.71446786       0.00149868      -2.71545557       0.00000000
Si      -2.71697652      -2.71339272      -0.00041252       0.00000000
