10
Lattice="16.28999089631971 0.0 0.0 0.0 16.28999089631971 0.0 0.0 0.0 34.376317263855086" Properties=species:S:1:pos:R:3:initial_magmoms:R:1 pbc="T T T"
Si       1.52205615       1.30109859       1.15298233       0.00000000
Si      -1.22878728       1.50348555      -1.31726684       0.00000000
Si       1.50271992      -1.20632337      -1.33919894       0.00000000
Si      -1.05624360      -1.64393793       1.54745079       0.00000000
Si      -2.56505598       0.14957478      -2.69039522       0.00000000
Si       0.15182280      -2.56857462      -2.68767949       0.00000000
Si       1.00947501      -3.18866976       1.65817697       0.00000000
Si      -2.64979656      -2.64699468       0.09288486       0.00000000
Si       2.77250913      -2.60493390       0.02076331       0.00000000
Si       2.82066237      -0.08229708       2.55591499       0.00000000
