10
Lattice="16.28999089631971 0.0 0.0 0.0 16.28999089631971 0.0 0.0 0.0 34.376317263855086" Properties=species:S:1:pos:R:3:initial_magmoms:R:1 pbc="T T T"
Si      -1.80639810      -1.26563526       0.84177335       0.00000000
Si      -2.11069530       0.03272661      -1.70272870       0.00000000
Si       0.35204319      -2.69382843       0.23595917       0.00000000
Si       1.03114071       2.03090688      -1.76230289       0.00000000
Si       2.83781574       0.92970288      -0.77504888       0.00000000
Si      -0.48290076       0.80565453      -3.27654613       0.00000000
Si       2.25833157      -2.18132874       1.59176188       0.00000000
Si       3.45965391      -0.07675848       1.28024352       0.00000000
Si      -3.42345753       0.43712586       1.44724377       0.00000000
Si       1.57908744       2.94101289       2.10902262       0.00000000
