10
Lattice="16.28999089631971 0.0 0.0 0.0 16.28999089631971 0.0 0.0 0.0 34.376317263855086" Properties=species:S:1:pos:R:3:initial_magmoms:R:1 pbc="T T T"
Si      -2.15881596       0.81078588      -0.44929872       0.00000000
Si      -0.02785590      -0.14755482       2.38582088       0.00000000
Si       0.71229654      -1.90347021      -1.33765200       0.00000000
Si       1.90773819       1.58511474      -0.50522902       0.00000000
Si       1.76997366       2.89403253       1.49482062       0.00000000
Si       0.58832964      -1.19946528      -3.60800277       0.00000000
Si      -2.82510954       0.25713765      -2.66172536       0.00000000
Si       2.63057436      -2.86686081      -0.10907612       0.00000000
Si      -0.95138487      -3.60530280      -1.15432300       0.00000000
Si      -2.48181408       3.11484348       0.20612051       0.00000000
