10
Lattice="16.28999089631971 0.0 0.0 0.0 16.28999089631971 0.0 0.0 0.0 34.376317263855086" Properties=species:S:1:pos:R:3:initial_magmoms:R:1 pbc="T T T"
Si      -1.34687349      -1.35731538      -1.39193224       0.00000000
Si       1.36331010       1.36256076      -1.38983528       0.00000000
Si       1.27511604      -1.48493124       1.45896610       0.00000000
Si      -1.53202563       1.34366436       1.46773206       0.00000000
Si       2.69534340      -2.70457983      -0.04489550       0.00000000
Si      -2.68837128      -2.72034855      -0.02880737       0.00000000
Si       2.70964602       2.71453302      -0.00574085       0.00000000
Si      -2.71441899       2.71653669      -0.02354779       0.00000000
Si      -2.70730026      -0.00070047      -2.75089757       0.00000000
Si       0.00654858       2.71370223      -2.75213512       0.00000000
