10
Lattice="16.28999089631971 0.0 0.0 0.0 16.28999089631971 0.0 0.0 0.0 34.376317263855086" Properties=species:S:1:pos:R:3:initial_magmoms:R:1 pbc="T T T"
Si       1.80667503      -1.10120400       0.98725401       0.00000000
Si       1.25318970       1.48020714      -1.49935829       0.00000000
Si      -1.51404147      -1.22525235      -1.51424325       0.00000000
Si      -1.03114071      -2.03090688       1.76230289       0.00000000
Si      -3.14183601      -1.99818027       0.05957419       0.00000000
Si      -1.83710475       2.59779888       1.98495842       0.00000000
Si       2.96031654       2.42225784      -0.07071212       0.00000000
Si       2.71650411      -2.66870925      -0.50904479       0.00000000
Si      -0.03433932      -2.46632229      -2.97929395       0.00000000
Si       1.84591764       2.74333374       2.16921558       0.00000000
