10
Lattice="16.28999089631971 0.0 0.0 0.0 16.28999089631971 0.0 0.0 0.0 34.376317263855086" Properties=species:S:1:pos:R:3:initial_magmoms:R:1 pbc="T T T"
Si      -0.56876535       1.32089094       1.84882813       0.00000000
Si       1.75208724      -1.42666191       0.82276324       0.00000000
Si       1.29797091       1.83322773      -1.70210992       0.00000000
Si      -2.38505148       1.68769287      -1.88636709       0.00000000
Si       2.80174968       2.19035340       0.03203875       0.00000000
Si       1.51988958       2.48409468       2.04195439       0.00000000
Si       3.59807004      -0.02912652       0.41306606       0.00000000
Si       1.88056647      -3.01777137      -0.82877910       0.00000000
Si       1.25872830      -2.01131001      -2.88407150       0.00000000
Si      -0.58220460       3.30603921      -1.84810623       0.00000000
