10
Lattice="16.28999089631971 0.0 0.0 0.0 16.28999089631971 0.0 0.0 0.0 34.376317263855086" Properties=species:S:1:pos:R:3:initial_magmoms:R:1 pbc="T T T"
Si       0.94369599      -1.52707347      -1.47151346       0.00000000
Si       1.38715866       1.08805797       1.55274474       0.00000000
Si      -0.91367352       1.72726128      -1.31781686       0.00000000
Si      -1.59899382      -0.67105026       1.63046964       0.00000000
Si      -0.07972326       2.84952825       2.02844449       0.00000000
Si      -2.01960162       1.55826882       2.40180588       0.00000000
Si      -0.60002586      -3.32174277      -1.27288699       0.00000000
Si       1.42715061      -0.14693580      -3.31473824       0.00000000
Si       1.98179253      -0.63487017       2.96420274       0.00000000
Si       0.03026682       3.61967058      -0.28556423       0.00000000
