10
Lattice="16.28999089631971 0.0 0.0 0.0 16.28999089631971 0.0 0.0 0.0 34.376317263855086" Properties=species:S:1:pos:R:3:initial_magmoms:R:1 pbc="T T T"
Si       0.29550060      -1.09463913      -2.04652644       0.00000000
Si      -1.27319382       1.98200430      -0.20697992       0.00000000
Si       2.19177063       0.82290564       0.41475050       0.00000000
Si      -0.29442546      -1.42568451       1.90458655       0.00000000
Si      -1.94527035       1.41605712       2.06529592       0.00000000
Si       1.87069473      -2.67853212      -1.43129315       0.00000000
Si      -2.45386044      -2.32546266       1.32874853       0.00000000
Si      -0.59875524       0.12243564       3.59108961       0.00000000
Si       0.31724775       3.72262338      -0.27985776       0.00000000
Si       3.21546681       0.88153335      -1.82624288       0.00000000
