10
Lattice="16.28999089631971 0.0 0.0 0.0 16.28999089631971 0.0 0.0 0.0 34.376317263855086" Properties=species:S:1:pos:R:3:initial_magmoms:R:1 pbc="T T T"
Si       1.34658027       1.36277253      -1.35710557       0.00000000
Si       1.35624024      -1.35681039       1.35786529       0.00000000
Si      -1.35830907       1.35747886       1.35827781       0.00000000
Si      -1.35755973      -1.36630746      -1.37270556       0.00000000
Si       2.59217883       0.01202202      -2.77797238       0.00000000
Si      -2.62971099       0.05388732      -2.78077061       0.00000000
Si       2.71479366      -2.71010214      -0.00192507       0.00000000
Si      -2.71435383       2.71440174      -0.00223446       0.00000000
Si       2.71438641       0.00073305       2.71473367       0.00000000
Si      -0.00078192      -2.71419093       2.71493993       0.00000000
