10
Lattice="16.28999089631971 0.0 0.0 0.0 16.28999089631971 0.0 0.0 0.0 34.376317263855086" Properties=species:S:1:pos:R:3:initial_magmoms:R:1 pbc="T T T"
Si      -1.35638685      -1.35589815      -1.35748715       0.00000000
Si       1.35891180       1.35927018      -1.35765903       0.00000000
Si       1.36042677      -1.35661491       1.35896533       0.00000000
Si      -1.35700587       1.36093176       1.36119980       0.00000000
Si       0.00099369      -2.71290402      -2.71487117       0.00000000
Si       2.71384884       2.71440270      -0.00123755       0.00000000
Si      -2.71359146       0.00164529      -2.71490555       0.00000000
Si       2.71500543      -2.71446786      -0.00044689       0.00000000
Si       2.71590138       0.00213399      -2.71469929       0.00000000
Si      -2.71650085      -2.71458189       0.00010313       0.00000000
