10
Lattice="16.28999089631971 0.0 0.0 0.0 16.28999089631971 0.0 0.0 0.0 34.376317263855086" Properties=species:S:1:pos:R:3:initial_magmoms:R:1 pbc="T T T"
Si      -1.18239336       1.37287233      -1.49127985       0.00000000
Si       1.23452136       1.37697741       1.55291662       0.00000000
Si      -1.55338182      -1.28244654       1.46958838       0.00000000
Si       1.53202563      -1.34366436      -1.46773206       0.00000000
Si      -2.64699468       2.55303396      -0.00742529       0.00000000
Si      -2.45781891      -2.82258459      -0.03104183       0.00000000
Si      -2.53228050       0.01656693      -2.85742984       0.00000000
Si       1.51969410      -0.09265752       3.51381161       0.00000000
Si      -0.28315278      -1.71100386       3.47555075       0.00000000
Si       0.18515214      -2.70097974      -2.85966430       0.00000000
