10
Lattice="16.28999089631971 0.0 0.0 0.0 16.28999089631971 0.0 0.0 0.0 34.376317263855086" Properties=species:S:1:pos:R:3:initial_magmoms:R:1 pbc="T T T"
Si      -1.10640540      -1.37734296      -1.49966222       0.00000000
Si      -1.37424344       1.30650524       1.40023413       0.00000000
Si       0.98468977       1.57825502      -1.45524799       0.00000000
Si       1.35905027      -1.40125526       1.38661078       0.00000000
Si      -0.69137203       3.43757933      -1.14995033       0.00000000
Si       0.81434524      -2.21502528      -2.84821152       0.00000000
Si       2.71243976       2.59121609      -0.12839905       0.00000000
Si      -2.68288059       2.71557395      -0.00292199       0.00000000
Si      -0.00859949       2.66373917       2.76195300       0.00000000
Si      -1.96499658       0.13798119      -3.31432027       0.00000000
