10
Lattice="16.28999089631971 0.0 0.0 0.0 16.28999089631971 0.0 0.0 0.0 34.376317263855086" Properties=species:S:1:pos:R:3:initial_magmoms:R:1 pbc="T T T"
Si      -1.26978921       1.39861053      -1.35996225       0.00000000
Si       1.51267311       1.24452342       1.32778600       0.00000000
Si       1.44098082      -1.32373680      -1.34782740       0.00000000
Si      -1.76303412      -0.58373586       1.63741366       0.00000000
Si       0.04815324       2.52263682       2.53515169       0.00000000
Si      -0.90792315      -2.67975397       2.43002885       0.00000000
Si      -2.62068633       0.03635928      -2.70844280       0.00000000
Si       2.67890679      -2.69522432       0.08171255       0.00000000
Si      -2.77250913       2.60493390      -0.02076331       0.00000000
Si      -2.57396661      -2.77390097       0.40258128       0.00000000
