10
Lattice="16.28999089631971 0.0 0.0 0.0 16.28999089631971 0.0 0.0 0.0 34.376317263855086" Properties=species:S:1:pos:R:3:initial_magmoms:R:1 pbc="T T T"
Si       1.19203704      -0.13926321      -1.96653270       0.00000000
Si      -2.19872646      -0.40168045      -0.75792947       0.00000000
Si      -0.24099426       2.31585156       0.55610600       0.00000000
Si       0.99792540      -1.79286681       1.37831921       0.00000000
Si      -0.32430132       1.79465301       2.83051317       0.00000000
Si       0.98730432      -2.51959778      -2.25880032       0.00000000
Si      -3.41272242       1.07642691       0.64204684       0.00000000
Si       3.38239044       0.51235308      -1.37996928       0.00000000
Si       0.36471681       1.66169403      -3.28634339       0.00000000
Si      -2.43875961      -2.75963093      -0.67690444       0.00000000
