10
Lattice="16.28999089631971 0.0 0.0 0.0 16.28999089631971 0.0 0.0 0.0 34.376317263855086" Properties=species:S:1:pos:R:3:initial_magmoms:R:1 pbc="T T T"
Si       1.35762489      -1.35428544       1.36040914       0.00000000
Si      -1.35863487       1.36163223       1.35917159       0.00000000
Si      -1.36404315      -1.35935163      -1.36469587       0.00000000
Si       1.36896273       1.37345877      -1.36621874       0.00000000
Si      -2.71666701      -2.70788996       0.00312825       0.00000000
Si       2.71500543      -2.71098832       0.00085941       0.00000000
Si      -2.71226871       2.71606428       0.00099691       0.00000000
Si      -0.00071676      -2.71175883       2.71700251       0.00000000
Si       2.71471221       0.00309510       2.71700251       0.00000000
Si      -2.71511946       0.00263898       2.71727752       0.00000000
