10
Lattice="16.28999089631971 0.0 0.0 0.0 16.28999089631971 0.0 0.0 0.0 34.376317263855086" Properties=species:S:1:pos:R:3:initial_magmoms:R:1 pbc="T T T"
Si       1.35656604       1.35671265       1.35618085       0.00000000
Si      -1.35733167       1.35767376      -1.35800280       0.00000000
Si       1.35769005      -1.35757602      -1.35776216       0.00000000
Si      -1.35870003      -1.35746199       1.35704026       0.00000000
Si       2.71347417       0.00208512       2.71432115       0.00000000
Si      -2.71526607       0.00135207       2.71390864       0.00000000
Si      -2.71472850      -2.71503801      -0.00048127       0.00000000
Si       0.00087966       2.71423980      -2.71562745       0.00000000
Si       2.71417464       0.00141723      -2.71586809       0.00000000
Si       2.71497285      -2.71510317      -0.00017188       0.00000000
