10
Lattice="16.28999089631971 0.0 0.0 0.0 16.28999089631971 0.0 0.0 0.0 34.376317263855086" Properties=species:S:1:pos:R:3:initial_magmoms:R:1 pbc="T T T"
Si       2.25062640      -0.60789393       0.30543375       0.00000000
Si      -0.66525102       1.76256171       1.40912041       0.00000000
Si      -0.90872136      -2.14821117       0.55672477       0.00000000
Si      -0.24957909       0.89432100      -2.21751434       0.00000000
Si       2.26235520      -1.73478726      -1.79320722       0.00000000
Si      -3.22333488      -1.79486478       0.55617475       0.00000000
Si      -0.52220853       0.93169026       3.63299437       0.00000000
Si       1.17771813      -0.56436705      -3.57276703       0.00000000
Si      -2.82945897       2.44359774       0.70361485       0.00000000
Si      -0.31281687      -2.67126841       2.83384767       0.00000000
