10
Lattice="16.28999089631971 0.0 0.0 0.0 16.28999089631971 0.0 0.0 0.0 34.376317263855086" Properties=species:S:1:pos:R:3:initial_magmoms:R:1 pbc="T T T"
Si       1.63571148      -0.25777296       1.63507607       0.00000000
Si      -0.62749080       2.23814826      -0.16627834       0.00000000
Si       0.40226526      -1.09626813      -2.05501739       0.00000000
Si      -1.53098307      -1.31171967       1.29399406       0.00000000
Si      -1.54759887       2.47388085       1.97557368       0.00000000
Si      -1.21310001      -3.37124808       0.29109882       0.00000000
Si      -1.12979295      -2.85004953      -1.98330836       0.00000000
Si      -2.73725757       2.19235707      -1.15291357       0.00000000
Si       0.50956749       0.13497894       3.67857739       0.00000000
Si       2.54958048      -2.02145868      -1.83174309       0.00000000
