10
Lattice="16.28999089631971 0.0 0.0 0.0 16.28999089631971 0.0 0.0 0.0 34.376317263855086" Properties=species:S:1:pos:R:3:initial_magmoms:R:1 pbc="T T T"
Si       1.97170902       1.26659637       0.00116880       0.00000000
Si      -0.06884154      -0.18010224      -2.38341454       0.00000000
Si      -2.02041612       1.11273732       0.73035964       0.00000000
Si       0.52792632      -1.83871746       1.53352837       0.00000000
Si      -2.08541322       2.28939660      -1.31833250       0.00000000
Si      -2.27147760       0.40768983      -2.72195270       0.00000000
Si       3.04056108       0.42767766       1.88612645       0.00000000
Si      -1.29757995      -3.33923823       1.12651255       0.00000000
Si       3.09785301       0.87384447      -2.04233253       0.00000000
Si       1.68862140       3.56234607      -0.23197152       0.00000000
