10
Lattice="16.28999089631971 0.0 0.0 0.0 16.28999089631971 0.0 0.0 0.0 34.376317263855086" Properties=species:S:1:pos:R:3:initial_magmoms:R:1 pbc="T T T"
Si      -1.35821133      -1.35656604       1.35762466       0.00000000
Si       1.35687555       1.35824391       1.35745277       0.00000000
Si       1.35966114      -1.35839052      -1.35841531       0.00000000
Si      -1.36021500       1.35995436      -1.36209358       0.00000000
Si       2.71329498      -2.71282257      -0.00024063       0.00000000
Si       2.71379997       2.71513575      -0.00017188       0.00000000
Si      -2.71648782      -2.71265967      -0.00034376       0.00000000
Si       2.71435383       0.00138465       2.71535244       0.00000000
Si      -0.00087966      -2.71423980       2.71562745       0.00000000
Si      -2.71585251       0.00105885       2.71552432       0.00000000
