10
Lattice="16.28999089631971 0.0 0.0 0.0 16.28999089631971 0.0 0.0 0.0 34.376317263855086" Properties=species:S:1:pos:R:3:initial_magmoms:R:1 pbc="T T T"
Si       1.32366024      -1.37503890       1.28399054       0.00000000
Si      -1.32721146      -1.36293543      -1.34827429       0.00000000
Si       1.38741930       1.34833959      -1.34669298       0.00000000
Si      -1.42022736       1.21964859       1.50386159       0.00000000
Si       2.14321014       0.36217557       2.62786467       0.00000000
Si       0.28689948       2.16169929       2.93250776       0.00000000
Si      -2.68763823      -0.01058850      -2.70644897       0.00000000
Si      -2.69534340       2.70457983       0.04489550       0.00000000
Si       0.02865411       2.70510111      -2.70593333       0.00000000
Si       0.02780703      -2.72543103      -2.70693024       0.00000000
