10
Lattice="16.28999089631971 0.0 0.0 0.0 16.28999089631971 0.0 0.0 0.0 34.376317263855086" Properties=species:S:1:pos:R:3:initial_magmoms:R:1 pbc="T T T"
Si       1.35540945      -1.35861858      -1.35944660       0.00000000
Si      -1.35876519       1.35676152      -1.35924034       0.00000000
Si      -1.38741930      -1.34833959       1.34669298       0.00000000
Si       1.35799956       1.35785295       1.37876610       0.00000000
Si      -0.06375906      -2.72337849       2.63068353       0.00000000
Si      -0.18990882       2.55883320       2.80397464       0.00000000
Si      -2.71463076      -2.71127502      -0.00158131       0.00000000
Si       2.71119357       2.71803537      -0.00079066       0.00000000
Si       2.64668517      -0.08535960       2.78022059       0.00000000
Si       2.71316466      -0.00027693      -2.71693375       0.00000000
