10
Lattice="16.28999089631971 0.0 0.0 0.0 16.28999089631971 0.0 0.0 0.0 34.376317263855086" Properties=species:S:1:pos:R:3:initial_magmoms:R:1 pbc="T T T"
Si      -1.80667503       1.10120400      -0.98725401       0.00000000
Si       0.90982908      -1.56750525      -1.49629880       0.00000000
Si       0.62183817      -1.00646136       2.05529241       0.00000000
Si      -2.83781574      -0.92970288       0.77504888       0.00000000
Si       2.19040227      -0.01327635      -2.70648335       0.00000000
Si       2.89981548      -1.33815834       1.42156464       0.00000000
Si      -0.55348533       2.58141114      -2.48661230       0.00000000
Si       2.20843530      -2.95090092      -0.09336613       0.00000000
Si       3.00995217       1.72393812      -1.36260923       0.00000000
Si      -1.25872830       2.01131001       2.88407150       0.00000000
