10
Lattice="16.28999089631971 0.0 0.0 0.0 16.28999089631971 0.0 0.0 0.0 34.376317263855086" Properties=species:S:1:pos:R:3:initial_magmoms:R:1 pbc="T T T"
Si      -1.72774998      -1.01296107      -1.32684894       0.00000000
Si       1.35620766      -1.30074021       1.49836482       0.00000000
Si       1.55698191       1.28831094      -1.34169951       0.00000000
Si      -1.34837217       1.43470917       1.50814488       0.00000000
Si      -3.40381179       0.84636324      -1.02155128       0.00000000
Si      -2.71243976      -2.59121609       0.12839905       0.00000000
Si       2.74102056      -2.77071234      -0.00828470       0.00000000
Si      -0.00324171      -2.64472222       2.89193337       0.00000000
Si      -2.68907989       2.85625602       0.09414647       0.00000000
Si       2.71156824       0.07141536       2.88777383       0.00000000
