10
Lattice="16.28999089631971 0.0 0.0 0.0 16.28999089631971 0.0 0.0 0.0 34.376317263855086" Properties=species:S:1:pos:R:3:initial_magmoms:R:1 pbc="T T T"
Si      -1.37621178      -1.91932038       0.38876199       0.00000000
Si      -0.77235777       1.69724029       1.54088491       0.00000000
Si      -0.78297885       0.97050933      -2.09623462       0.00000000
Si       2.34774738      -0.73360386       0.05025820       0.00000000
Si      -3.27096684      -0.71936640       1.13878490       0.00000000
Si       2.31239808      -2.70777267      -1.16680161       0.00000000
Si      -2.32176483       0.51842925       2.92759194       0.00000000
Si       0.59038218       0.06654465      -3.77342170       0.00000000
Si      -0.57824613       3.35084390      -1.80396701       0.00000000
Si      -0.21761811      -3.51135837       1.71744177       0.00000000
