10
Lattice="16.28999089631971 0.0 0.0 0.0 16.28999089631971 0.0 0.0 0.0 34.376317263855086" Properties=species:S:1:pos:R:3:initial_magmoms:R:1 pbc="T T T"
Si       1.35747828       1.35527063       1.35755590       0.00000000
Si      -1.35741312       1.35751865      -1.35776216       0.00000000
Si      -1.35749457      -1.35956768       1.35618085       0.00000000
Si       1.35795069      -1.35775949      -1.35779654       0.00000000
Si      -0.00213399      -2.71197977       2.71590246       0.00000000
Si      -2.71453302       2.71438932       0.00010313       0.00000000
Si       0.00092853       2.71499205      -2.71435553       0.00000000
Si      -2.71456560      -2.71494455      -0.00034376       0.00000000
Si       2.71519618       0.00023654      -2.71476804       0.00000000
Si       2.71554399       2.71479657      -0.00013751       0.00000000
