10
Lattice="16.28999089631971 0.0 0.0 0.0 16.28999089631971 0.0 0.0 0.0 34.376317263855086" Properties=species:S:1:pos:R:3:initial_magmoms:R:1 pbc="T T T"
Si      -1.35562122       1.35500220      -1.36037476       0.00000000
Si       1.35988920      -1.36172508      -1.36013413       0.00000000
Si      -1.36381509      -1.36439664       1.35982474       0.00000000
Si       1.36904418       1.35985662       1.37340339       0.00000000
Si       2.62715346      -0.16291629       2.78809277       0.00000000
Si      -2.70956457      -2.71677194       0.00089378       0.00000000
Si      -2.71362078       2.71458189      -0.00309387       0.00000000
Si      -2.71212210      -0.00260640      -2.71758690       0.00000000
Si       0.00257382       2.71300176      -2.71796504       0.00000000
Si       2.72155401       2.71301805      -0.00498457       0.00000000
