10
Lattice="16.28999089631971 0.0 0.0 0.0 16.28999089631971 0.0 0.0 0.0 34.376317263855086" Properties=species:S:1:pos:R:3:initial_magmoms:R:1 pbc="T T T"
Si       1.35250983       1.35316143      -1.37838796       0.00000000
Si      -1.36904418      -1.35985662      -1.37340339       0.00000000
Si      -1.31644377       1.40129838       1.41991458       0.00000000
Si       1.25810928      -1.52277291       1.41468937       0.00000000
Si      -2.66116698      -0.15599304       2.66203474       0.00000000
Si       2.68262321       2.70117522      -0.00206258       0.00000000
Si      -2.71451673       2.70806589      -0.01344115       0.00000000
Si       2.70507572      -0.00457749      -2.73377816       0.00000000
Si      -0.00912240       2.70896184      -2.73370941       0.00000000
Si       2.70100322      -2.74260069      -0.00268135       0.00000000
