10
Lattice="16.28999089631971 0.0 0.0 0.0 16.28999089631971 0.0 0.0 0.0 34.376317263855086" Properties=species:S:1:pos:R:3:initial_magmoms:R:1 pbc="T T T"
Si      -1.35676152      -1.15993580      -1.45002825       0.00000000
Si      -1.38214134       1.36447158       1.30881026       0.00000000
Si       0.56029455      -2.08494311       1.16336398       0.00000000
Si       1.39628106       1.41303207      -1.45130017       0.00000000
Si       0.63716706       2.53678143       1.92486858       0.00000000
Si       2.04090309       0.74341533       2.59850727       0.00000000
Si      -2.52299520       2.77981194      -0.20395480       0.00000000
Si       1.18297980      -1.31906876       3.33147952       0.00000000
Si       0.11337840      -2.49652625      -2.86815526       0.00000000
Si       2.53602135      -2.86987676       0.01931950       0.00000000
