10
Lattice="16.28999089631971 0.0 0.0 0.0 16.28999089631971 0.0 0.0 0.0 34.376317263855086" Properties=species:S:1:pos:R:3:initial_magmoms:R:1 pbc="T T T"
Si       0.92564667       0.84726408       2.00194033       0.00000000
Si       1.86981507      -0.34414484      -1.46092555       0.00000000
Si      -1.59244524      -1.71475286       0.54448679       0.00000000
Si      -1.27423638       1.74601596      -1.11589026       0.00000000
Si      -2.68778484      -2.19371144      -1.47670429       0.00000000
Si      -2.96580627      -0.81078818       2.22167387       0.00000000
Si       1.55782899      -0.90830012       3.37744068       0.00000000
Si      -0.57072015       2.22116268       3.10050492       0.00000000
Si      -0.00270414       3.76970637      -0.95184638       0.00000000
Si       2.72773836       1.71833925      -2.19389779       0.00000000
