10
Lattice="16.28999089631971 0.0 0.0 0.0 16.28999089631971 0.0 0.0 0.0 34.376317263855086" Properties=species:S:1:pos:R:3:initial_magmoms:R:1 pbc="T T T"
Si       1.24730968      -1.74279379       0.85108934       0.00000000
Si      -2.20063239      -0.59792445      -0.52953309       0.00000000
Si      -0.52962048       1.68011802       1.63995751       0.00000000
Si       1.06273746       0.61621812      -2.07158679       0.00000000
Si      -2.52221328       1.79450640      -0.71306835       0.00000000
Si      -0.04611699       2.70879894      -2.20802647       0.00000000
Si      -0.53295993       3.49598061      -0.00512207       0.00000000
Si       1.23510033      -3.28610744      -0.94665555       0.00000000
Si       3.49005824      -1.00470204       1.14837590       0.00000000
Si      -2.57820201      -0.83758293      -2.80070889       0.00000000
