10
Lattice="16.28999089631971 0.0 0.0 0.0 16.28999089631971 0.0 0.0 0.0 34.376317263855086" Properties=species:S:1:pos:R:3:initial_magmoms:R:1 pbc="T T T"
Si      -1.42920315       1.35167904       1.26972436       0.00000000
Si       1.34837217       1.35770634      -1.36209358       0.00000000
Si      -1.36814823      -1.35334062      -1.36305612       0.00000000
Si       1.39807296      -1.30676751       1.43335573       0.00000000
Si      -2.70977634      -0.20254986       2.47990891       0.00000000
Si       2.39050863       0.34249725       2.92061355       0.00000000
Si       2.71451673      -2.70806589       0.01344115       0.00000000
Si       2.70477531       2.71946889       0.00257823       0.00000000
Si       2.70539433       0.00089595      -2.72026826       0.00000000
Si      -0.01014867      -2.71292031      -2.72033701       0.00000000
