10
Lattice="16.28999089631971 0.0 0.0 0.0 16.28999089631971 0.0 0.0 0.0 34.376317263855086" Properties=species:S:1:pos:R:3:initial_magmoms:R:1 pbc="T T T"
Si       1.58749308       0.98549613      -1.50008019       0.00000000
Si      -0.99243567      -1.64926476      -1.48725782       0.00000000
Si       1.59312942      -1.27099467       1.39822311       0.00000000
Si      -1.83078423       1.36282140       1.22902278       0.00000000
Si       1.59803271       0.17513379       3.28685904       0.00000000
Si       0.31426668       2.37697164      -2.91803532       0.00000000
Si      -2.39050863      -0.34249725      -2.92061355       0.00000000
Si       3.47261165       1.89436410      -0.13025194       0.00000000
Si      -2.33715888      -3.20655618      -0.24513766       0.00000000
Si      -3.11029857      -0.31570020       2.47715881       0.00000000
