10
Lattice="16.28999089631971 0.0 0.0 0.0 16.28999089631971 0.0 0.0 0.0 34.376317263855086" Properties=species:S:1:pos:R:3:initial_magmoms:R:1 pbc="T T T"
Si       1.35242253      -1.35984033      -1.35934347       0.00000000
Si       1.35890758       1.33921719       1.37622225       0.00000000
Si      -1.36081773       1.35596331      -1.35968724       0.00000000
Si      -1.36078515      -1.35638685       1.36339988       0.00000000
Si      -0.19637595       2.52576450       2.72459968       0.00000000
Si       2.71250396      -2.71308321       0.00161569       0.00000000
Si       2.71191752       2.71567332       0.00175319       0.00000000
Si       2.71253654      -0.00115659      -2.71693375       0.00000000
Si      -0.00188478       2.71401174      -2.71672750       0.00000000
Si      -0.00179835      -2.71634121      -2.71727752       0.00000000
