10
Lattice="16.28999089631971 0.0 0.0 0.0 16.28999089631971 0.0 0.0 0.0 34.376317263855086" Properties=species:S:1:pos:R:3:initial_magmoms:R:1 pbc="T T T"
Si       1.53883485       1.40963886      -1.04820325       0.00000000
Si      -1.15562889      -0.99841410      -1.77320019       0.00000000
Si       0.91701297      -1.74003264       1.27897160       0.00000000
Si      -1.62258174       1.27817856       1.19835909       0.00000000
Si      -3.21476634      -0.68499450       1.40496087       0.00000000
Si      -2.91931461      -2.02383702      -0.62269296       0.00000000
Si       1.53541395      -3.19218840      -0.69959282       0.00000000
Si      -1.63683549       0.84281202      -3.18713328       0.00000000
Si       3.10815059      -0.08405640      -2.05690809       0.00000000
Si       0.37918233       2.21174217      -3.00074479       0.00000000
