10
Lattice="16.28999089631971 0.0 0.0 0.0 16.28999089631971 0.0 0.0 0.0 34.376317263855086" Properties=species:S:1:pos:R:3:initial_magmoms:R:1 pbc="T T T"
Si      -1.34397387      -1.35650088      -1.37302526       0.00000000
Si       1.17946116      -1.54797354       1.35250258       0.00000000
Si       1.37665161       1.35664351      -1.37371278       0.00000000
Si      -1.47013992       1.33659045       1.41812701       0.00000000
Si       2.42264295      -0.37335051       2.88747476       0.00000000
Si      -0.11337840       2.49652625       2.86815526       0.00000000
Si      -2.69716788      -2.71668330       0.00653150       0.00000000
Si       2.72579660       2.68973054      -0.00051565       0.00000000
Si      -2.70806589       2.70807796      -0.01141294       0.00000000
Si      -2.69933445      -0.00408879      -2.73274687       0.00000000
