10
Lattice="16.28999089631971 0.0 0.0 0.0 16.28999089631971 0.0 0.0 0.0 34.376317263855086" Properties=species:S:1:pos:R:3:initial_magmoms:R:1 pbc="T T T"
Si      -1.09533960      -0.47895858      -2.02119108       0.00000000
Si      -1.37336103       0.90396468       1.67718708       0.00000000
Si       1.59244524       1.71475286      -0.54448679       0.00000000
Si       0.58868802      -2.26373985       0.57315666       0.00000000
Si      -2.37364848      -2.38982445      -1.32400460       0.00000000
Si       1.53139032      -3.03397992      -1.51194003       0.00000000
Si      -2.81515635       1.57445328      -1.98592096       0.00000000
Si      -0.59038218      -0.06654465       3.77342170       0.00000000
Si       0.31820886       3.46076882      -1.66037705       0.00000000
Si      -3.66195942       0.20593818       1.24621095       0.00000000
