10
Lattice="16.28999089631971 0.0 0.0 0.0 16.28999089631971 0.0 0.0 0.0 34.376317263855086" Properties=species:S:1:pos:R:3:initial_magmoms:R:1 pbc="T T T"
Si      -0.84509262      -1.17475335      -1.86553503       0.00000000
Si       0.48120660      -1.84122612       1.41393310       0.00000000
Si      -1.98457812       1.08305694       0.76789860       0.00000000
Si       2.01601782       1.36893015       0.18638850       0.00000000
Si      -1.13779134       1.83176163       2.86468325       0.00000000
Si       1.63683549      -0.84281202       3.18713328       0.00000000
Si       3.14843346       0.73510254      -1.77051883       0.00000000
Si      -2.00368629       0.41728464      -3.19421481       0.00000000
Si       3.17567034       0.56682684       2.13893003       0.00000000
Si      -2.13644979      -3.05922942      -1.04727509       0.00000000
