10
Lattice="16.28999089631971 0.0 0.0 0.0 16.28999089631971 0.0 0.0 0.0 34.376317263855086" Properties=species:S:1:pos:R:3:initial_magmoms:R:1 pbc="T T T"
Si       0.98881929       1.71551619      -1.32304206       0.00000000
Si      -1.33473418       1.54924416       1.40303580       0.00000000
Si      -1.88511857      -0.90886797      -1.36982826       0.00000000
Si       1.85875416      -1.76888223       0.25816629       0.00000000
Si      -0.46598034      -2.24375202      -2.77898304       0.00000000
Si       2.29029255       0.47408787      -2.78853966       0.00000000
Si       0.54599193      -1.36448298       3.40813875       0.00000000
Si       1.89325638       3.25565424       0.17758815       0.00000000
Si       3.48654870      -0.99595431      -1.31565115       0.00000000
Si      -0.14413392       3.64097790       1.40637030       0.00000000
