10
Lattice="16.28999089631971 0.0 0.0 0.0 16.28999089631971 0.0 0.0 0.0 34.376317263855086" Properties=species:S:1:pos:R:3:initial_magmoms:R:1 pbc="T T T"
Si      -0.90440451      -0.20745315       2.20314503       0.00000000
Si      -1.23781194      -1.55725884      -1.41176739       0.00000000
Si       0.07646526       2.49549768      -0.55751542       0.00000000
Si       1.16879121      -0.90728784       3.14069085       0.00000000
Si       1.86409728      -2.62643670       1.65387992       0.00000000
Si       0.37924749      -3.26001996      -2.01723780       0.00000000
Si       3.76473303       0.94662819      -0.74998853       0.00000000
Si       1.37968155       2.63432106      -2.63635562       0.00000000
Si      -2.79560183      -1.75036050       2.27688227       0.00000000
Si       3.19596768       2.26751913       1.09883960       0.00000000
