10
Lattice="16.28999089631971 0.0 0.0 0.0 16.28999089631971 0.0 0.0 0.0 34.376317263855086" Properties=species:S:1:pos:R:3:initial_magmoms:R:1 pbc="T T T"
Si      -1.97319371       0.01892898      -1.20654066       0.00000000
Si       1.10809956      -1.77679917      -1.04693133       0.00000000
Si       0.17492691      -0.89046027       2.17296260       0.00000000
Si       0.55404408       2.32393140       0.08927535       0.00000000
Si      -0.78309777      -3.31970652      -0.97319409       0.00000000
Si       2.18232732       0.17405865       2.79397112       0.00000000
Si      -3.61533974       1.18314270      -0.03740145       0.00000000
Si      -2.85392885      -2.18035134      -1.37055016       0.00000000
Si       2.86764762       2.57237019      -0.15431537       0.00000000
Si      -1.44376592       0.06142959       3.59249904       0.00000000
