10
Lattice="16.28999089631971 0.0 0.0 0.0 16.28999089631971 0.0 0.0 0.0 34.376317263855086" Properties=species:S:1:pos:R:3:initial_magmoms:R:1 pbc="T T T"
Si      -1.10809956       1.77679917       1.04693133       0.00000000
Si       2.07319572      -0.69983469       0.93754582       0.00000000
Si       0.90440451       0.20745315      -2.20314503       0.00000000
Si      -1.89119732      -1.54290735       0.07373724       0.00000000
Si      -0.93317265       0.88633890       3.21989393       0.00000000
Si      -3.08129327       1.79572815      -0.15960933       0.00000000
Si       2.76850179      -2.41898355      -0.54926510       0.00000000
Si       3.61691757       1.09483461       0.73891935       0.00000000
Si      -0.33340743      -1.34980569      -3.61491241       0.00000000
Si       0.98086977       2.70295083      -2.76066045       0.00000000
