10
Lattice="16.28999089631971 0.0 0.0 0.0 16.28999089631971 0.0 0.0 0.0 34.376317263855086" Properties=species:S:1:pos:R:3:initial_magmoms:R:1 pbc="T T T"
Si      -1.61869283       0.95188986       1.41953644       0.00000000
Si      -0.17492691       0.89046027      -2.17296260       0.00000000
Si       2.00740041       1.06451892       0.62100852       0.00000000
Si      -0.11954742      -2.37211722       0.71141828       0.00000000
Si       2.59439427      -0.84991446       1.88698586       0.00000000
Si      -3.17069279      -0.85561596       0.96401560       0.00000000
Si       0.93317265      -0.88633890      -3.21989393       0.00000000
Si       0.77649543      -2.02077450       2.90297849       0.00000000
Si       0.37911717       3.21439167      -2.08368726       0.00000000
Si       1.58679261       3.29383800       1.39234476       0.00000000
