10
Lattice="16.28999089631971 0.0 0.0 0.0 16.28999089631971 0.0 0.0 0.0 34.376317263855086" Properties=species:S:1:pos:R:3:initial_magmoms:R:1 pbc="T T T"
Si       2.15943498       0.89977815       0.57583801       0.00000000
Si       0.32299812      -2.30405760      -0.65541923       0.00000000
Si      -1.01747340       0.14125059       2.24013397       0.00000000
Si      -1.56264757       0.67144122      -2.14583968       0.00000000
Si       2.45386044       2.32546266      -1.32874853       0.00000000
Si      -1.56179886      -3.42497250       0.18319150       0.00000000
Si       1.85510520       2.44789830       2.26234108       0.00000000
Si       0.50859009       3.74151978       0.73654739       0.00000000
Si       0.79716744       0.94776849       3.68453966       0.00000000
Si       2.48181408      -3.11484348      -0.20612051       0.00000000
