10
Lattice="16.28999089631971 0.0 0.0 0.0 16.28999089631971 0.0 0.0 0.0 34.376317263855086" Properties=species:S:1:pos:R:3:initial_magmoms:R:1 pbc="T T T"
Si      -1.35739977       1.35726651       1.35728089       0.00000000
Si      -1.35774758      -1.35729352      -1.35734965       0.00000000
Si       1.35746525      -1.35823705       1.35734965       0.00000000
Si       1.35857297       1.35700587      -1.35776216       0.00000000
Si       2.71313534      -0.00170230       2.71397739       0.00000000
Si      -0.00123478       2.71474479       2.71473367       0.00000000
Si       2.71497611       2.71466334       0.00010313       0.00000000
Si      -2.71492791       2.71484253      -0.00034376       0.00000000
Si      -2.71499307      -2.71528955      -0.00037814       0.00000000
Si       2.71492724      -2.71546874      -0.00003438       0.00000000
