10
Lattice="16.28999089631971 0.0 0.0 0.0 16.28999089631971 0.0 0.0 0.0 34.376317263855086" Properties=species:S:1:pos:R:3:initial_magmoms:R:1 pbc="T T T"
Si       1.34988714       1.35630540       1.36614999       0.00000000
Si      -1.35877659       1.35493704      -1.36171544       0.00000000
Si       1.35700587      -1.36093176      -1.36119980       0.00000000
Si      -1.35300993      -1.37645613       1.37446906       0.00000000
Si      -0.11471418       2.53646703       2.85000455       0.00000000
Si       2.53228050      -0.01656693       2.85742984       0.00000000
Si      -2.71110302       2.71470823      -0.00336888       0.00000000
Si      -2.71191752      -2.71567332      -0.00175319       0.00000000
Si       0.00081450       2.71283662      -2.71865257       0.00000000
Si      -2.71380230      -0.00166158      -2.71848069       0.00000000
