10
Lattice="16.28999089631971 0.0 0.0 0.0 16.28999089631971 0.0 0.0 0.0 34.376317263855086" Properties=species:S:1:pos:R:3:initial_magmoms:R:1 pbc="T T T"
Si      -1.35890758      -1.33921719      -1.37622225       0.00000000
Si       1.35300993       1.37645613      -1.37446906       0.00000000
Si      -1.55528353       1.18654731       1.34837742       0.00000000
Si       1.42747152      -1.46269539       1.45191895       0.00000000
Si      -0.31210174       2.36117034       2.88334960       0.00000000
Si       2.33190861       0.07744266       2.95254916       0.00000000
Si      -2.71969273      -2.69560404      -0.01282237       0.00000000
Si       2.72894478      -2.70412371      -0.01357865       0.00000000
Si      -0.00648505      -2.69905752      -2.73556573       0.00000000
Si       2.70289707       2.73276153      -0.00831907       0.00000000
