10
Lattice="16.28999089631971 0.0 0.0 0.0 16.28999089631971 0.0 0.0 0.0 34.376317263855086" Properties=species:S:1:pos:R:3:initial_magmoms:R:1 pbc="T T T"
Si       1.35373158      -1.35931091      -1.36095916       0.00000000
Si      -1.36063854       1.35713619      -1.36020288       0.00000000
Si       1.34768799       1.36896273       1.37979739       0.00000000
Si      -1.36471104      -1.38088701       1.37089392       0.00000000
Si      -0.22871160       2.57165343       2.82109405       0.00000000
Si       2.62813086      -0.08086356       2.77994558       0.00000000
Si      -2.71385603      -2.71397404      -0.00230321       0.00000000
Si      -2.71320443       2.71487511      -0.00481269       0.00000000
Si       2.71287144       2.71570590      -0.00333450       0.00000000
Si       2.71661814      -2.71357598       0.00106567       0.00000000
