10
Lattice="10.86 0.0 0.0 0.0 10.86 0.0 0.0 0.0 10.86" Properties=species:S:1:pos:R:3:initial_magmoms:R:1 pbc="T T T"
Si      -1.42717776      -1.34973510       1.12676844       0.00000000
Si       1.28782224      -1.34973510      -1.58823156       0.00000000
Si       1.54935276       1.60809450       1.01491044       0.00000000
Si      -1.42717776       1.36526490      -1.58823156       0.00000000
Si      -0.17286948       2.65902756       2.14366626       0.00000000
Si       2.70452010       0.05495160       2.45892120       0.00000000
Si      -0.06967776      -2.70723510       2.48426844       0.00000000
Si      -2.78467776       0.00776490       2.48426844       0.00000000
Si       2.64532224      -2.70723510      -0.23073156       0.00000000
Si      -2.78467776      -2.70723510      -0.23073156       0.00000000
