10
Lattice="10.86 0.0 0.0 0.0 10.86 0.0 0.0 0.0 10.86" Properties=species:S:1:pos:R:3:initial_magmoms:R:1 pbc="T T T"
Si      -1.11710304       1.30341720      -1.33739814       0.00000000
Si       1.59789696       1.30341720       1.37760186       0.00000000
Si       1.59789696      -1.41158280      -1.33739814       0.00000000
Si      -2.58059664       2.53831866      -0.07416294       0.00000000
Si      -2.47460304      -0.05408280      -2.69489814       0.00000000
Si      -2.38437816      -2.87792172      -0.10079166       0.00000000
Si       0.24039696       2.66091720      -2.69489814       0.00000000
Si       0.24039696      -2.76908280      -2.69489814       0.00000000
Si       0.41177862       2.67754386       2.76618318       0.00000000
Si       2.95539696       2.66091720       0.02010186       0.00000000
