10
Lattice="16.290000149 0.0 0.0 0.0 16.290000149 0.0 0.0 0.0 29.1751946751" Properties=species:S:1:pos:R:3:initial_magmoms:R:1 pbc="T T T"
H        0.43357464       1.27420381      -0.70151756       0.00000000
Si      -0.80632243       0.97490764       1.95371691       0.00000000
Si      -1.88548607      -0.75450394      -1.23110569       0.00000000
Si       2.00772623      -1.39672090      -0.05196102       0.00000000
H        0.90085330      -0.23415246      -2.53161917       0.00000000
H       -0.64295002      -2.68973966      -1.00858648       0.00000000
Si       3.16899473       0.65001988      -0.65049014       0.00000000
Si      -2.31671495       2.28224531       0.66706165       0.00000000
Si       0.79234561      -2.99389026      -1.45350820       0.00000000
Si       1.98738002       0.82505593      -2.66763393       0.00000000
