10
Lattice="16.290000149 0.0 0.0 0.0 16.290000149 0.0 0.0 0.0 29.1751946751" Properties=species:S:1:pos:R:3:initial_magmoms:R:1 pbc="T T T"
Si      -0.68447323       2.04910772       0.76733680       0.00000000
Si       2.05514642      -0.60791023       0.89124385       0.00000000
Si      -1.23709519      -1.78906067       0.84648910       0.00000000
Si      -0.63174250      -0.68156709      -2.14630237       0.00000000
Si      -0.66728728      -2.82269376      -1.15991821       0.00000000
H        0.69501286       2.31396683      -2.14011723       0.00000000
Si      -1.29922525       1.53307309       2.94838682       0.00000000
Si      -3.51652233       0.78560643      -0.77063359       0.00000000
Si       1.53083647      -1.85495372       2.82821420       0.00000000
Si       1.08071119       3.53236110       0.43298906       0.00000000
