10
Lattice="16.290000149 0.0 0.0 0.0 16.290000149 0.0 0.0 0.0 29.1751946751" Properties=species:S:1:pos:R:3:initial_magmoms:R:1 pbc="T T T"
Si       1.32761872       1.38021913      -1.37842584       0.00000000
Si       1.34737849      -1.36220239       1.37756808       0.00000000
Si      -1.36432009       1.34801380       1.39051604       0.00000000
Si      -1.39173616      -1.37859013      -1.33924355       0.00000000
Si       2.53008137      -0.08750988      -2.81439974       0.00000000
Si      -2.64919385      -2.74778094       0.08569338       0.00000000
Si      -0.07542270       2.80533351      -2.59721959       0.00000000
Si       2.71966439       0.04398300       2.68950073       0.00000000
Si      -2.84627028       0.03702717      -2.55561577       0.00000000
Si       2.63259434       2.82745533      -0.00445797       0.00000000
