10
Lattice="16.290000149 0.0 0.0 0.0 16.290000149 0.0 0.0 0.0 29.1751946751" Properties=species:S:1:pos:R:3:initial_magmoms:R:1 pbc="T T T"
Si      -1.36772470      -1.35799957      -1.32907599       0.00000000
Si      -1.43645221       1.33519357       1.28178300       0.00000000
Si       1.35303112       1.35146728      -1.36239407       0.00000000
Si       1.36241416      -1.32625036       1.38089114       0.00000000
Si      -0.08711892       2.67766877       2.59659233       0.00000000
Si      -0.09448200      -2.62614350       2.68242575       0.00000000
Si       0.00294849      -2.71471223      -2.66191559       0.00000000
Si      -2.71006958       0.02417436      -2.67434422       0.00000000
Si       2.73041579      -0.01457955      -2.67519030       0.00000000
Si       2.73066014       2.69063561      -0.02975870       0.00000000
