10
Lattice="16.290000149 0.0 0.0 0.0 16.290000149 0.0 0.0 0.0 29.1751946751" Properties=species:S:1:pos:R:3:initial_magmoms:R:1 pbc="T T T"
Si       1.72209737      -0.76137832      -1.37648568       0.00000000
Si       1.36049194       1.34241004       1.34582256       0.00000000
Si      -1.44098572       1.17561673      -1.45409170       0.00000000
Si      -1.18699530      -1.69380164       1.19492845       0.00000000
Si      -1.66014324      -0.69550156      -2.88163398       0.00000000
Si       0.64827685      -0.84971899      -3.47890856       0.00000000
Si       2.56673387      -2.60390765      -0.24688050       0.00000000
Si      -2.64765054      -0.41392890       2.54019667       0.00000000
Si      -0.08026083       2.53705349       2.70679404       0.00000000
Si      -2.89310403       2.39404358      -0.10403874       0.00000000
