10
Lattice="16.290000149 0.0 0.0 0.0 16.290000149 0.0 0.0 0.0 29.1751946751" Properties=species:S:1:pos:R:3:initial_magmoms:R:1 pbc="T T T"
Si      -1.52146972       1.31613101       1.19589123       0.00000000
Si       1.41029047       1.28467502      -1.38252495       0.00000000
Si      -1.22855923      -1.43059107      -1.42815495       0.00000000
Si       0.98212411      -0.86005825       1.98723921       0.00000000
Si      -0.08182467       2.64671452       2.40354006       0.00000000
Si      -0.76338199      -1.18459415       3.48060072       0.00000000
Si       1.10744308      -3.16383080       1.75051168       0.00000000
Si      -2.68056839      -0.12378445       2.70150633       0.00000000
Si      -2.56671758      -2.81105455      -0.11232450       0.00000000
Si       0.06519258       2.62091116      -2.78885686       0.00000000
