10
Lattice="16.290000149 0.0 0.0 0.0 16.290000149 0.0 0.0 0.0 29.1751946751" Properties=species:S:1:pos:R:3:initial_magmoms:R:1 pbc="T T T"
Si       0.34756344      -0.88827742      -2.13285261       0.00000000
Si      -1.82413793       1.45295398       0.16279759       0.00000000
Si       1.62469945       1.68401135       0.07492190       0.00000000
Si       0.22612149      -1.50913819       1.83818314       0.00000000
H       -0.90616384      -1.44837649       2.84236417       0.00000000
Si       1.05489154       2.71764443       2.08132921       0.00000000
Si       2.29825838      -0.81972910       2.72910606       0.00000000
Si       1.40253643       0.87506623      -3.31587758       0.00000000
Si      -3.65650230       0.16456158       0.80567300       0.00000000
H       -1.83448208       0.30734343       3.29169134       0.00000000
