10
Lattice="16.290000149 0.0 0.0 0.0 16.290000149 0.0 0.0 0.0 29.1751946751" Properties=species:S:1:pos:R:3:initial_magmoms:R:1 pbc="T T T"
Si      -0.90976393       0.89899624      -0.80500197       0.00000000
Si       0.90569143      -1.55893672       1.50211407       0.00000000
H       -2.01534995      -0.32617467       1.41902312       0.00000000
Si       1.91666513       0.59176684       1.89489972       0.00000000
Si       1.87328486      -1.96530055      -0.65264910       0.00000000
Si      -1.39774717      -1.62745246       1.86411989       0.00000000
Si      -2.22790187      -0.56267290      -2.08663910       0.00000000
Si       0.42904602       2.21299652      -2.19829257       0.00000000
Si      -2.04576338       2.32658669       0.66192682       0.00000000
Si       3.02612817       2.02010663       0.33093423       0.00000000
