10
Lattice="16.290000149 0.0 0.0 0.0 16.290000149 0.0 0.0 0.0 29.1751946751" Properties=species:S:1:pos:R:3:initial_magmoms:R:1 pbc="T T T"
Si       1.35580042       1.34004799      -1.31517693       0.00000000
Si       1.43384581      -1.31947372       1.28251238       0.00000000
Si      -1.33574743       1.44153469       1.28916433       0.00000000
Si      -1.30383532      -1.29477808      -1.47692421       0.00000000
Si      -0.05056416       2.70449840      -2.56867166       0.00000000
Si       0.05395248      -2.63735102       2.64589841       0.00000000
Si      -2.67105503      -2.64487700      -0.12571591       0.00000000
Si      -2.70003494       0.08011422       2.61864877       0.00000000
Si       2.78014917      -2.59880888      -0.17793951       0.00000000
Si       2.76916971       0.08485461       2.62107031       0.00000000
