10
Lattice="16.290000149 0.0 0.0 0.0 16.290000149 0.0 0.0 0.0 29.1751946751" Properties=species:S:1:pos:R:3:initial_magmoms:R:1 pbc="T T T"
Si      -0.93108754       1.04265775      -1.83223140       0.00000000
Si       1.06833079       1.75844036       1.06851233       0.00000000
Si       1.33387408      -1.54921159      -1.15737997       0.00000000
Si      -1.93948742      -1.02578131       0.90212619       0.00000000
H        0.51196212      -1.27913968       2.39589616       0.00000000
Si       0.68906701      -2.66727901       1.78692232       0.00000000
Si      -1.70105069      -1.00040149      -2.71332228       0.00000000
Si      -0.48216771      -2.86880098      -1.75932259       0.00000000
Si      -2.22487193       2.54580122      -0.51117859       0.00000000
Si      -1.21068910      -3.21630415       0.50090892       0.00000000
