10
Lattice="16.290000149 0.0 0.0 0.0 16.290000149 0.0 0.0 0.0 29.1751946751" Properties=species:S:1:pos:R:3:initial_magmoms:R:1 pbc="T T T"
Si       1.36537894       1.35527914       1.34652276       0.00000000
Si       1.36945144      -1.36340785      -1.33619474       0.00000000
Si      -1.34770429      -1.34833960       1.37765269       0.00000000
Si      -1.34877943       1.36085032      -1.36487396       0.00000000
Si      -0.01151703       2.71956665       2.67618226       0.00000000
Si       2.72088614       0.01229895      -2.68274668       0.00000000
Si       2.71539641      -0.02104668       2.68960285       0.00000000
Si      -2.69643485      -2.70962975       0.02757056       0.00000000
Si       0.02248020      -2.72029970      -2.69823870       0.00000000
Si      -2.70892928       0.00640197      -2.71842794       0.00000000
