10
Lattice="16.290000149 0.0 0.0 0.0 16.290000149 0.0 0.0 0.0 29.1751946751" Properties=species:S:1:pos:R:3:initial_magmoms:R:1 pbc="T T T"
Si       1.37137366      -1.34543998      -1.33832453       0.00000000
Si       1.37808514       1.33560082       1.34386782       0.00000000
Si      -1.34938216      -1.36453186       1.35714253       0.00000000
Si      -1.34524450       1.35928648      -1.36913354       0.00000000
Si       0.00070047       2.70164765       2.65666405       0.00000000
Si      -0.01413972      -2.69576696      -2.66296589       0.00000000
Si      -2.72005535      -0.00781920       2.68998212       0.00000000
Si       2.74201428       0.01288539      -2.67603638       0.00000000
Si      -2.69221574       0.00239463      -2.73117750       0.00000000
Si       2.73527022       2.69105915      -0.01292461       0.00000000
