10
Lattice="16.290000149 0.0 0.0 0.0 16.290000149 0.0 0.0 0.0 29.1751946751" Properties=species:S:1:pos:R:3:initial_magmoms:R:1 pbc="T T T"
Si       1.42670591      -1.20431971       1.39005215       0.00000000
Si      -1.43028319       1.22072374       1.38649278       0.00000000
Si      -1.37171917      -1.40012551      -1.31504272       0.00000000
Si       1.35476927       1.44410851      -1.29534947       0.00000000
H       -1.20080107      -1.44067132       3.07623253       0.00000000
Si      -0.05856255      -2.40062474       2.77814956       0.00000000
Si       2.56270536      -2.63191016      -0.07687664       0.00000000
Si      -0.04211942       2.69899238       2.53266947       0.00000000
Si      -2.69103146       2.58826925      -0.03060478       0.00000000
Si       2.54991771       0.04254948      -2.77324813       0.00000000
