10
Lattice="16.290000149 0.0 0.0 0.0 16.290000149 0.0 0.0 0.0 29.1751946751" Properties=species:S:1:pos:R:3:initial_magmoms:R:1 pbc="T T T"
Si       1.21572271      -1.41314122       1.45083692       0.00000000
Si      -1.48915036      -1.25224489      -1.37444342       0.00000000
Si      -1.47978361       1.29936225       1.34106700       0.00000000
Si       1.61741782       1.48702615      -0.93716560       0.00000000
Si       2.55482588      -2.77169466       0.10870678       0.00000000
H        1.17180487      -1.11793384      -3.45160058       0.00000000
Si       0.88861951       3.67754898      -0.53594833       0.00000000
Si      -2.80117956      -2.62001846       0.10870678       0.00000000
Si      -0.18282267       2.58361520       2.84660624       0.00000000
H        3.07628508      -0.69229243      -2.21372625       0.00000000
