10
Lattice="16.290000149 0.0 0.0 0.0 16.290000149 0.0 0.0 0.0 29.1751946751" Properties=species:S:1:pos:R:3:initial_magmoms:R:1 pbc="T T T"
Si       1.53839503      -1.27606087      -1.19066887       0.00000000
Si       1.39657429       1.31962033       1.36579881       0.00000000
Si      -1.21606480      -1.43567029       1.44324437       0.00000000
Si      -1.46481310       1.20979315      -1.46363199       0.00000000
H        0.35466588      -1.82350262      -2.23368208       0.00000000
Si      -2.66727575       2.67752216      -0.02765808       0.00000000
Si       2.85553505       2.49797378      -0.05207772       0.00000000
Si      -2.64751598      -0.06489936       2.72833584       0.00000000
Si      -0.13227480       2.54128889      -2.86970132       0.00000000
Si       0.06618627       2.75937942       2.68036015       0.00000000
