10
Lattice="16.290000149 0.0 0.0 0.0 16.290000149 0.0 0.0 0.0 29.1751946751" Properties=species:S:1:pos:R:3:initial_magmoms:R:1 pbc="T T T"
Si      -0.22167432       2.13472307       0.91560513       0.00000000
Si      -1.81433135      -0.75903256      -1.38226237       0.00000000
Si       0.33410790      -1.95152573       1.36642024       0.00000000
Si       2.13009671       0.57984256      -0.98460447       0.00000000
H        2.21620565      -0.20575899       1.55570891       0.00000000
H       -1.35395965       2.19548477       1.91978616       0.00000000
H        2.86133853      -0.63835624       1.59982180       0.00000000
Si       1.92523367      -2.76314241      -0.15678750       0.00000000
H       -1.05551056      -1.11606049       3.00489918       0.00000000
H        1.06334605      -1.86222395       2.68169637       0.00000000
