10
Lattice="16.290000149 0.0 0.0 0.0 16.290000149 0.0 0.0 0.0 29.1751946751" Properties=species:S:1:pos:R:3:initial_magmoms:R:1 pbc="T T T"
Si      -1.39041667      -1.34431597      -1.27573499       0.00000000
Si       1.32992669      -1.40908501       1.31095820       0.00000000
Si      -1.42519582       1.36024759       1.27002540       0.00000000
Si       1.29502243       1.31492881      -1.46909067       0.00000000
Si       2.62636179       2.67473657      -0.09070568       0.00000000
Si       2.66483714      -0.03189582       2.65602220       0.00000000
Si      -0.06884154       2.70987410       2.62454216       0.00000000
Si      -0.13238883      -2.74675467      -2.63830994       0.00000000
Si      -2.74999638      -0.02665044       2.65281293       0.00000000
Si       2.68043319      -2.73551456      -0.09595722       0.00000000
