10
Lattice="16.290000149 0.0 0.0 0.0 16.290000149 0.0 0.0 0.0 29.1751946751" Properties=species:S:1:pos:R:3:initial_magmoms:R:1 pbc="T T T"
Si       1.14223852      -0.95995342      -0.29808296       0.00000000
Si      -1.86302704       1.57721410      -0.26117634       0.00000000
H       -1.14854764      -1.81840385       1.92655481       0.00000000
Si      -1.52926123       1.38352600       2.10265628       0.00000000
Si      -0.17473990      -2.65109978      -1.44385121       0.00000000
Si       2.42598339      -0.79868242       1.72863028       0.00000000
Si       2.62750698       0.23635161      -1.68618038       0.00000000
Si      -0.22948212       2.66139506      -1.68973975       0.00000000
Si      -1.07828887      -0.74738521       2.99299570       0.00000000
Si      -2.96089160      -0.06766866      -1.66351125       0.00000000
