10
Lattice="16.290000149 0.0 0.0 0.0 16.290000149 0.0 0.0 0.0 29.1751946751" Properties=species:S:1:pos:R:3:initial_magmoms:R:1 pbc="T T T"
Si      -1.34710482      -1.34755768       1.36828746       0.00000000
Si       1.35153244      -1.36932112      -1.35895139       0.00000000
Si      -1.36552881       1.34789977      -1.37205106       0.00000000
Si       1.33064866       1.34570062       1.41464684       0.00000000
Si      -2.64715663       2.69293250       0.08431631       0.00000000
Si       0.04637763       2.73833274      -2.62862669       0.00000000
Si       2.70515000       0.02826315      -2.67902976       0.00000000
Si      -2.71137278      -2.67740813      -0.01064895       0.00000000
Si       2.71793765       2.70498710       0.11039894       0.00000000
Si       0.00338832      -2.70681158       2.72796823       0.00000000
