10
Lattice="16.290000149 0.0 0.0 0.0 16.290000149 0.0 0.0 0.0 29.1751946751" Properties=species:S:1:pos:R:3:initial_magmoms:R:1 pbc="T T T"
Si       1.23807259      -1.63880660      -1.09389475       0.00000000
Si      -1.16369245      -0.23767110       2.01384699       0.00000000
Si      -1.53010342       0.86221342      -1.58295854       0.00000000
Si       1.53116227       1.80270029       0.39316492       0.00000000
H        0.06033816      -2.48896541      -1.94610219       0.00000000
Si      -2.57417840       2.47917024      -0.27001643       0.00000000
H        0.67715902      -3.11652138       1.76874618       0.00000000
Si       0.41111073       0.53173818       3.59660130       0.00000000
H       -1.97863229      -2.88056073      -1.10148030       0.00000000
Si      -0.24158070       2.30282105      -2.85960671       0.00000000
