10
Lattice="16.290000149 0.0 0.0 0.0 16.290000149 0.0 0.0 0.0 29.1751946751" Properties=species:S:1:pos:R:3:initial_magmoms:R:1 pbc="T T T"
Si       1.27204066      -1.35850456      -1.42080281       0.00000000
Si       1.37171917       1.40012551       1.31504272       0.00000000
Si      -1.39014121       1.33579630      -1.37126332       0.00000000
Si      -1.29784207      -1.35972631       1.44035019       0.00000000
Si       2.61628659      -2.69345378      -0.04347104       0.00000000
Si      -0.05856402       2.62084925       2.70153550       0.00000000
Si      -2.72750135      -2.63010197       0.04142878       0.00000000
Si       2.61138330       0.01335780      -2.78138801       0.00000000
Si      -0.03541593       2.70619256      -2.74229325       0.00000000
Si      -2.77721843       2.67284693      -0.02380696       0.00000000
