10
Lattice="16.290000149 0.0 0.0 0.0 16.290000149 0.0 0.0 0.0 29.1751946751" Properties=species:S:1:pos:R:3:initial_magmoms:R:1 pbc="T T T"
Si      -0.51077784      -0.91196308      -2.09270754       0.00000000
Si       2.05636817       1.00714555       0.72138586       0.00000000
Si      -1.41869286       1.94600342       0.00615597       0.00000000
Si      -0.67963021      -1.75946663       1.50981632       0.00000000
H        1.44296821       1.57872907      -2.38375928       0.00000000
Si      -1.94408120      -0.33630705       2.83765179       0.00000000
H        2.85000069      -0.45520776      -1.92389986       0.00000000
Si       0.23934897       1.21414258      -3.26843871       0.00000000
Si       1.04863618       2.24849243       2.56309920       0.00000000
Si      -3.08552151       1.16237296       1.45473356       0.00000000
