10
Lattice="16.290000149 0.0 0.0 0.0 16.290000149 0.0 0.0 0.0 29.1751946751" Properties=species:S:1:pos:R:3:initial_magmoms:R:1 pbc="T T T"
Si      -1.35159760       1.36045936      -1.30308090       0.00000000
Si       1.38300472       1.35215146       1.29523277       0.00000000
Si       1.36399429      -1.34640109      -1.33149753       0.00000000
Si      -1.33880995      -1.31400028       1.39329060       0.00000000
H       -0.42904602      -2.21299652       2.19829257       0.00000000
Si       2.59708214      -0.19288989       2.52922680       0.00000000
Si      -2.66185118      -0.06885783      -2.62626350       0.00000000
Si      -2.54674604       2.76201840       0.17481777       0.00000000
Si       2.60333750      -2.73838160       0.04002837       0.00000000
Si       0.02202408       2.61493598      -2.73214028       0.00000000
