10
Lattice="16.290000149 0.0 0.0 0.0 16.290000149 0.0 0.0 0.0 29.1751946751" Properties=species:S:1:pos:R:3:initial_magmoms:R:1 pbc="T T T"
Si       1.33338538       1.34026628      -1.32838454       0.00000000
Si      -1.33020883       1.41974519       1.28586753       0.00000000
Si       1.43410645      -1.34632942       1.26150624       0.00000000
Si      -1.36076887      -1.28216447      -1.40994963       0.00000000
Si       0.05435973      -2.68978202       2.59670903       0.00000000
Si      -2.67895568       0.04616586       2.62293753       0.00000000
Si       0.05530455       2.77007217       2.61050889       0.00000000
Si       2.78083335       0.04170077       2.60061850       0.00000000
Si      -2.71057457      -2.67741791      -0.09969164       0.00000000
Si      -0.04079016      -2.77118315      -2.61786104       0.00000000
