10
Lattice="16.290000149 0.0 0.0 0.0 16.290000149 0.0 0.0 0.0 29.1751946751" Properties=species:S:1:pos:R:3:initial_magmoms:R:1 pbc="T T T"
Si      -1.36155079      -1.34921926       1.35545037       0.00000000
Si      -1.38579846       1.34920297      -1.33333557       0.00000000
Si       1.31802391      -1.36145305      -1.39378658       0.00000000
Si       1.37148769       1.36190917       1.35037389       0.00000000
Si      -0.01055592       2.69793353      -2.68408873       0.00000000
Si       0.01769094      -2.69293250       2.70343189       0.00000000
Si       2.68684004      -2.71990874      -0.07002047       0.00000000
Si       2.68869710      -0.01845657      -2.73613728       0.00000000
Si      -2.70045891      -0.01676241      -2.72764730       0.00000000
Si       0.01699047       2.71984358       2.71180517       0.00000000
