10
Lattice="16.290000149 0.0 0.0 0.0 16.290000149 0.0 0.0 0.0 29.1751946751" Properties=species:S:1:pos:R:3:initial_magmoms:R:1 pbc="T T T"
Si      -1.32287833      -1.32730921       1.36159525       0.00000000
Si       1.26445099      -1.42315957      -1.32783546       0.00000000
Si      -1.14144031       1.49868001      -1.38291823       0.00000000
Si       1.50640962       1.38606724       1.16311348       0.00000000
Si       1.94408120       0.33630705      -2.83765179       0.00000000
H       -2.32516946       0.95123827      -2.42593144       0.00000000
Si       0.52538834       2.28231047      -2.83149582       0.00000000
Si       0.10453293       2.73437427       2.53081452       0.00000000
Si       0.12800503      -2.71215470       2.58618904       0.00000000
Si      -2.58090617       0.07512948       2.72417020       0.00000000
