10
Lattice="16.290000149 0.0 0.0 0.0 16.290000149 0.0 0.0 0.0 29.1751946751" Properties=species:S:1:pos:R:3:initial_magmoms:R:1 pbc="T T T"
Si       1.33133936       1.35980776       1.37838499       0.00000000
Si      -1.29502243      -1.31492881       1.46909067       0.00000000
Si      -1.38779398       1.35998695      -1.35726507       0.00000000
Si       1.40187669      -1.34830702      -1.36770103       0.00000000
Si      -0.10453293      -2.73437427      -2.53081452       0.00000000
Si       0.07116678       2.53834040      -2.77514160       0.00000000
Si      -2.68543910      -2.65924478       0.19335569       0.00000000
Si       2.67670766       2.68858307      -0.00336098       0.00000000
Si       2.70078428       0.01075140       2.74180019       0.00000000
Si       2.76003102      -2.68947902       0.01170509       0.00000000
