10
Lattice="16.290000149 0.0 0.0 0.0 16.290000149 0.0 0.0 0.0 29.1751946751" Properties=species:S:1:pos:R:3:initial_magmoms:R:1 pbc="T T T"
Si       1.35710036      -1.24009255       1.45754138       0.00000000
Si      -1.17246706       1.59184301       1.28694701       0.00000000
Si       1.31857451       1.42890994      -1.34138793       0.00000000
Si      -1.45574283      -1.38310246      -1.35329141       0.00000000
Si      -0.51378498       2.61926587      -2.25918120       0.00000000
Si       2.79785314      -2.43473600       0.09656989       0.00000000
Si      -1.45613379       3.42749748      -0.27109591       0.00000000
Si      -0.00362453      -2.60152931      -2.70334436       0.00000000
Si      -2.65028854       0.28766511       2.66231529       0.00000000
Si       0.01005907      -2.70122411       2.69014551       0.00000000
