10
Lattice="16.290000149 0.0 0.0 0.0 16.290000149 0.0 0.0 0.0 29.1751946751" Properties=species:S:1:pos:R:3:initial_magmoms:R:1 pbc="T T T"
Si       1.34005940       1.35097858      -1.37032972       0.00000000
Si      -1.38299332       1.39094251       1.29995915       0.00000000
Si       1.35452492      -1.35094600       1.38162052       0.00000000
Si      -1.38530650      -1.36717084      -1.34553080       0.00000000
Si      -0.10210246      -2.74023867       2.60344850       0.00000000
Si      -2.69300255       0.05848110       2.68099616       0.00000000
Si       2.69696754      -2.67933035      -0.02643273       0.00000000
Si       2.68707951       2.69779670       0.01525863       0.00000000
Si      -0.06104352       2.69061444      -2.70626188       0.00000000
Si       2.69455662      -0.00695583      -2.73176100       0.00000000
