10
Lattice="16.290000149 0.0 0.0 0.0 16.290000149 0.0 0.0 0.0 29.1751946751" Properties=species:S:1:pos:R:3:initial_magmoms:R:1 pbc="T T T"
Si       1.16633143      -0.43640910       0.84009973       0.00000000
H       -0.71034175       1.07719255      -1.45514201       0.00000000
H        0.59533435       2.07834338      -0.96666173       0.00000000
H        1.67933612       0.97446781       1.58505915       0.00000000
H       -0.35963433       0.58287250       2.42968104       0.00000000
Si      -1.73843624       0.97616197       1.92004874       0.00000000
Si      -1.56532240       0.18088416      -2.28835639       0.00000000
Si       2.69395877      -1.27576765      -0.66157671       0.00000000
Si      -2.72442107      -1.02021013       1.07303449       0.00000000
Si       0.59442211      -2.11102112       2.45100810       0.00000000
