10
Lattice="16.290000149 0.0 0.0 0.0 16.290000149 0.0 0.0 0.0 29.1751946751" Properties=species:S:1:pos:R:3:initial_magmoms:R:1 pbc="T T T"
Si      -1.31971807      -1.34094394      -1.39442551       0.00000000
Si       1.35537688       1.31445640      -1.39945532       0.00000000
Si      -1.37896480       1.35928648       1.33566959       0.00000000
Si       1.35244468      -1.36741519       1.35585882       0.00000000
Si       2.69944850       2.68411961      -0.03670239       0.00000000
Si      -2.69433833      -2.70190829      -0.03299715       0.00000000
Si      -0.01881495       2.71373483       2.68922357       0.00000000
Si       0.09936900      -2.72302013      -2.67841416       0.00000000
Si       2.69941592      -0.01052334       2.71790279       0.00000000
Si      -0.01874979       2.66582594      -2.76031477       0.00000000
