10
Lattice="16.290000149 0.0 0.0 0.0 16.290000149 0.0 0.0 0.0 29.1751946751" Properties=species:S:1:pos:R:3:initial_magmoms:R:1 pbc="T T T"
Si      -1.36194175       1.35084826       1.35174512       0.00000000
Si      -1.35998695      -1.34327341      -1.36274417       0.00000000
Si       1.32251995      -1.36963063       1.38873927       0.00000000
Si       1.35597961       1.37803627      -1.35533367       0.00000000
Si       2.70039332       0.00988803       2.69333727       0.00000000
Si       0.01291797       2.71376741       2.68111286       0.00000000
Si       2.69570180      -2.70827768       0.02687035       0.00000000
Si       0.00294849      -2.70582604      -2.70798322       0.00000000
Si      -2.72499122      -2.69024140      -0.01260368       0.00000000
Si      -2.71586882       2.70358616      -0.01590048       0.00000000
