10
Lattice="16.290000149 0.0 0.0 0.0 16.290000149 0.0 0.0 0.0 29.1751946751" Properties=species:S:1:pos:R:3:initial_magmoms:R:1 pbc="T T T"
Si       0.59549725       0.08676054       1.40291841       0.00000000
H        2.11885661      -0.74616346      -0.32320281       0.00000000
Si       1.38961846      -0.83546524      -1.63847893       0.00000000
Si      -0.47925180      -2.30216798      -1.78843943       0.00000000
Si      -1.12151764       0.53043498       2.92315028       0.00000000
H       -3.12455235      -0.63726481       0.73314347       0.00000000
Si       1.07665498      -1.94409749       2.45789345       0.00000000
Si       1.05551056       1.11606049      -3.00489918       0.00000000
H       -1.71751988      -2.67120164       1.19300289       0.00000000
Si       2.48932379       1.58329027       1.72991399       0.00000000
