10
Lattice="16.290000149 0.0 0.0 0.0 16.290000149 0.0 0.0 0.0 29.1751946751" Properties=species:S:1:pos:R:3:initial_magmoms:R:1 pbc="T T T"
Si       1.37974672       1.34345260      -1.33520278       0.00000000
Si       1.36945144      -1.34824186       1.34103782       0.00000000
Si      -1.35107632       1.37660275       1.34838997       0.00000000
Si      -1.38033316      -1.34436484      -1.35673408       0.00000000
Si      -0.05435973       2.68978202      -2.59670903       0.00000000
Si      -0.00610875      -2.69063561       2.68257162       0.00000000
Si      -2.72758133       0.02122587       2.68128792       0.00000000
Si       2.72458397      -2.70104492      -0.02482809       0.00000000
Si       2.72696231       0.01470987       2.69876386       0.00000000
Si      -0.04458573      -2.78589954      -2.64589841       0.00000000
