10
Lattice="16.290000149 0.0 0.0 0.0 16.290000149 0.0 0.0 0.0 29.1751946751" Properties=species:S:1:pos:R:3:initial_magmoms:R:1 pbc="T T T"
Si      -1.36945144       1.34824186      -1.34103782       0.00000000
Si      -1.37556019      -1.34239375       1.34153380       0.00000000
Si       1.35513253      -1.35280306      -1.36586591       0.00000000
Si       1.35751087       1.36295173       1.35772603       0.00000000
Si       0.01029528       2.69169446      -2.67624061       0.00000000
Si      -0.01383021      -2.73688293       2.64616098       0.00000000
Si       2.71790507      -2.69231348      -0.00163381       0.00000000
Si      -2.72662022       0.02764413       2.69313305       0.00000000
Si       2.71052570       0.01767465      -2.71235950       0.00000000
Si      -2.72956872      -2.69578325      -0.01919728       0.00000000
