10
Lattice="16.290000149 0.0 0.0 0.0 16.290000149 0.0 0.0 0.0 29.1751946751" Properties=species:S:1:pos:R:3:initial_magmoms:R:1 pbc="T T T"
Si      -1.34873056      -1.36129015      -1.35008213       0.00000000
Si       1.34234488      -1.38217393       1.34526823       0.00000000
Si      -1.38789172       1.35125551       1.33234362       0.00000000
Si       1.34770429       1.34833960      -1.37765269       0.00000000
Si       2.71006958      -0.02417436       2.67434422       0.00000000
Si      -0.03564252       2.73618246       2.65520529       0.00000000
Si      -2.69219457      -0.00283446      -2.71276795       0.00000000
Si       2.71308323       2.70361874      -0.03112993       0.00000000
Si       0.01019754      -2.71661816      -2.70378199       0.00000000
Si      -0.03241710      -2.71925714       2.70640776       0.00000000
