10
Lattice="16.290000149 0.0 0.0 0.0 16.290000149 0.0 0.0 0.0 29.1751946751" Properties=species:S:1:pos:R:3:initial_magmoms:R:1 pbc="T T T"
Si      -1.49290847       1.06280848       1.43209361       0.00000000
Si      -1.38816377      -1.47826864      -1.14617670       0.00000000
Si       1.56123850      -1.07730658       1.36925024       0.00000000
Si       1.32482173       1.48761910      -1.25254946       0.00000000
H       -2.57943519       0.00360009       1.56810836       0.00000000
Si       1.99712633       0.73355500       2.85196281       0.00000000
Si      -0.31129376       0.88777243       3.44923739       0.00000000
Si      -2.64891204      -0.11072313      -2.56327425       0.00000000
Si       0.04211942      -2.69899238      -2.53266947       0.00000000
Si      -0.08378273       2.70345584      -2.63697080       0.00000000
