10
Lattice="16.290000149 0.0 0.0 0.0 16.290000149 0.0 0.0 0.0 29.1751946751" Properties=species:S:1:pos:R:3:initial_magmoms:R:1 pbc="T T T"
Si      -1.34702011      -1.34681812      -1.38558835       0.00000000
Si       1.30756573       1.34919320      -1.42170724       0.00000000
Si       1.43071813      -1.36314070       1.29307380       0.00000000
Si      -1.41871240       1.35593726       1.33397743       0.00000000
Si       0.08715150      -2.65506803       2.66314095       0.00000000
Si      -2.68707951      -2.69779670      -0.01525863       0.00000000
Si       2.60222978       2.78520558      -0.10917358       0.00000000
Si      -0.10057446       2.81760639       2.61561455       0.00000000
Si       2.68247432      -0.04669040       2.76796742       0.00000000
Si       0.00747711      -2.70475253      -2.74701963       0.00000000
