10
Lattice="16.290000149 0.0 0.0 0.0 16.290000149 0.0 0.0 0.0 29.1751946751" Properties=species:S:1:pos:R:3:initial_magmoms:R:1 pbc="T T T"
H        0.90976393      -0.89899624       0.80500197       0.00000000
Si       1.33880995       1.31400028      -1.39329060       0.00000000
Si      -1.13599945       1.42759045       1.46692879       0.00000000
Si      -1.31813794      -1.46166913      -1.28163713       0.00000000
H       -1.10558602      -1.22517091       2.22402509       0.00000000
Si      -2.56270536       2.63191016       0.07687664       0.00000000
Si      -0.48798324      -2.52644870       2.66912186       0.00000000
Si      -2.66238387      -0.12671991      -2.65896889       0.00000000
Si      -0.01278765       2.67445964      -2.69637149       0.00000000
Si       2.72181467       2.66615174      -0.09805783       0.00000000
