10
Lattice="16.290000149 0.0 0.0 0.0 16.290000149 0.0 0.0 0.0 29.1751946751" Properties=species:S:1:pos:R:3:initial_magmoms:R:1 pbc="T T T"
Si       1.38124540      -1.35602848      -1.32548453       0.00000000
Si       1.33674112       1.32489829       1.40494900       0.00000000
Si      -1.35361756      -1.39758427       1.32007836       0.00000000
Si      -1.32856354       1.39577608      -1.36904601       0.00000000
Si      -0.03394836      -2.65173509      -2.66790292       0.00000000
Si      -2.65877237       2.71006958       0.05040307       0.00000000
Si       2.70304859       0.04772970      -2.66707843       0.00000000
Si      -2.70515000      -0.02826315       2.67902976       0.00000000
Si      -2.75460645       0.03549591      -2.64823709       0.00000000
Si       2.68654682       2.72015173       0.09469101       0.00000000
