10
Lattice="16.290000149 0.0 0.0 0.0 16.290000149 0.0 0.0 0.0 29.1751946751" Properties=species:S:1:pos:R:3:initial_magmoms:R:1 pbc="T T T"
Si      -1.56123850       1.07730658      -1.36925024       0.00000000
Si       1.39921327      -1.47256714      -1.21007037       0.00000000
Si      -0.85230910      -1.47561337       1.64005439       0.00000000
Si       0.43588782       1.81086158       1.48271257       0.00000000
H        0.35131014      -1.11102688       2.52473382       0.00000000
Si      -1.87253226       1.96507901       2.07998715       0.00000000
Si      -0.23641677       2.56492568      -2.62179969       0.00000000
Si      -3.05414697       2.14011506       0.06284337       0.00000000
Si       2.71704170      -0.11673414      -2.59557119       0.00000000
Si      -0.09241317      -2.82600552      -2.51186756       0.00000000
