10
Lattice="16.290000149 0.0 0.0 0.0 16.290000149 0.0 0.0 0.0 29.1751946751" Properties=species:S:1:pos:R:3:initial_magmoms:R:1 pbc="T T T"
Si      -0.97006951       1.46023561       1.50444809       0.00000000
Si       1.57058407      -1.28115964       1.11796428       0.00000000
Si       1.61670106       1.02281653      -1.39734595       0.00000000
Si      -1.89382655      -1.49652973      -0.32699558       0.00000000
H       -0.37046718      -2.32945373      -2.05311680       0.00000000
H        0.78239242      -0.67298878      -3.17910426       0.00000000
H       -2.48932379      -1.58329027      -1.72991399       0.00000000
Si       0.17922258      -2.71702541       2.29325783       0.00000000
Si      -2.65815335       2.38550762       0.18902609       0.00000000
H       -2.11975256       2.64528425      -1.19381979       0.00000000
