10
Lattice="16.290000149 0.0 0.0 0.0 16.290000149 0.0 0.0 0.0 29.1751946751" Properties=species:S:1:pos:R:3:initial_magmoms:R:1 pbc="T T T"
Si       1.27900122      -1.37240156       1.38769188       0.00000000
Si      -1.34640028      -1.21503967      -1.48154264       0.00000000
Si      -1.43191724       1.30717314       1.35297048       0.00000000
Si       1.33663524       1.40698197      -1.35211127       0.00000000
Si      -1.63006701       0.62061480      -3.03958556       0.00000000
Si      -0.29547128       2.59616827      -2.56105402       0.00000000
Si       2.60921005      -2.68669506      -0.03175720       0.00000000
Si      -2.82422176      -2.51921757      -0.10617437       0.00000000
Si      -0.06997858       2.70325874       2.67072941       0.00000000
Si       2.58011611      -0.04509887       2.81319189       0.00000000
