10
Lattice="16.290000149 0.0 0.0 0.0 16.290000149 0.0 0.0 0.0 29.1751946751" Properties=species:S:1:pos:R:3:initial_magmoms:R:1 pbc="T T T"
Si      -1.40112409       1.31198032       1.32306590       0.00000000
Si       1.36708451      -1.23699745       1.44974460       0.00000000
Si       1.32927542       1.39978342      -1.34135875       0.00000000
Si      -1.39481986      -1.37503891      -1.31224191       0.00000000
Si       2.56223295      -2.63855648      -0.02815406       0.00000000
Si      -0.11358691       2.72134226       2.64079275       0.00000000
Si       2.62659474       0.04108338      -2.75813538       0.00000000
Si      -2.67871622      -0.09283671       2.71448929       0.00000000
Si      -2.73889148      -0.00710244      -2.68181307       0.00000000
Si      -2.74524458       2.67722894       0.00347185       0.00000000
