10
Lattice="16.290000149 0.0 0.0 0.0 16.290000149 0.0 0.0 0.0 29.1751946751" Properties=species:S:1:pos:R:3:initial_magmoms:R:1 pbc="T T T"
Si      -1.66682865      -0.78363046       1.44857759       0.00000000
Si       1.11096661       1.71053147       1.24190051       0.00000000
Si      -0.52344983       0.66209077      -2.23613280       0.00000000
Si       1.41869286      -1.94600342      -0.00615597       0.00000000
H       -2.85055780      -1.33107220       0.40556438       0.00000000
Si       2.46732903       0.30248901       2.55694324       0.00000000
Si       0.90791501      -2.85796650      -2.09886350       0.00000000
Si       3.47506102      -0.93885787       0.71522990       0.00000000
Si      -0.52538834      -2.28231047       2.83149582       0.00000000
Si       1.65804183      -0.73186084      -3.27459468       0.00000000
