10
Lattice="16.290000149 0.0 0.0 0.0 16.290000149 0.0 0.0 0.0 29.1751946751" Properties=species:S:1:pos:R:3:initial_magmoms:R:1 pbc="T T T"
Si       0.08319303      -0.69310693      -2.22950419       0.00000000
Si      -0.98824915      -1.78704071       1.15305037       0.00000000
Si       1.83787040       0.88102837       1.18790890       0.00000000
Si      -1.63313767       1.73525969      -0.08397759       0.00000000
H        2.53464257      -0.94646530      -0.73573422       0.00000000
Si      -2.30412278      -0.46408581       2.55354433       0.00000000
Si       0.55097668       2.33062661       2.51519937       0.00000000
Si      -2.11971998      -0.31107384      -3.03354338       0.00000000
Si      -2.07207173       1.98276995      -2.36712358       0.00000000
Si       2.02268045       0.33267438      -3.13163039       0.00000000
