10
Lattice="16.290000149 0.0 0.0 0.0 16.290000149 0.0 0.0 0.0 29.1751946751" Properties=species:S:1:pos:R:3:initial_magmoms:R:1 pbc="T T T"
Si      -1.32738740       1.35782038      -1.36758725       0.00000000
Si       1.31025358       1.42931719       1.32318260       0.00000000
Si      -1.33934264      -1.37186236       1.36058520       0.00000000
Si       1.37784079      -1.34648254      -1.35559625       0.00000000
Si       2.66185118       0.06885783       2.62626350       0.00000000
Si      -2.64679922       2.69283476       0.03909476       0.00000000
Si       2.68387526       2.68379381      -0.10587678       0.00000000
Si      -2.67146228      -0.00239463      -2.72032433       0.00000000
Si      -2.61138330      -0.01335780       2.78138801       0.00000000
Si       0.02186118      -2.71415837      -2.69292882       0.00000000
