10
Lattice="16.290000149 0.0 0.0 0.0 16.290000149 0.0 0.0 0.0 29.1751946751" Properties=species:S:1:pos:R:3:initial_magmoms:R:1 pbc="T T T"
Si      -1.30877119      -1.28958157       1.47023726       0.00000000
Si      -1.34737849       1.36220239      -1.37756808       0.00000000
Si       1.43145118      -1.37077093      -1.28509147       0.00000000
Si       1.37228590       1.40618539       1.31193265       0.00000000
Si      -2.62122392      -2.64948707       0.12526078       0.00000000
Si       2.64751598       0.06489936      -2.72833584       0.00000000
Si       2.74644516      -2.63471204       0.18808373       0.00000000
Si      -2.71169858       2.71021619       0.01294795       0.00000000
Si       2.71166600       0.06985152       2.73384411       0.00000000
Si      -2.73911465      -0.01638774      -2.71681163       0.00000000
