10
Lattice="16.290000149 0.0 0.0 0.0 16.290000149 0.0 0.0 0.0 29.1751946751" Properties=species:S:1:pos:R:3:initial_magmoms:R:1 pbc="T T T"
Si       0.84463651      -1.84252934       1.12960519       0.00000000
Si      -1.72209737       0.76137832       1.37648568       0.00000000
Si      -1.07382052      -0.08834067      -2.10242288       0.00000000
Si       1.79732459       1.59583357       0.12539499       0.00000000
H        2.33572538       1.85561021      -1.25745089       0.00000000
H       -1.15839820      -3.01022913      -1.06040163       0.00000000
Si       2.56165139      -2.28620378      -0.39062668       0.00000000
H        1.66770506       0.93858094      -2.87865811       0.00000000
Si      -0.36160542       2.10378836       2.72230824       0.00000000
Si      -0.62115400       2.12553551      -2.70401539       0.00000000
