10
Lattice="16.290000149 0.0 0.0 0.0 16.290000149 0.0 0.0 0.0 29.1751946751" Properties=species:S:1:pos:R:3:initial_magmoms:R:1 pbc="T T T"
Si       1.31499397      -1.26394111       1.47317520       0.00000000
Si      -0.85766851      -1.93824938      -1.03713441       0.00000000
Si      -1.43145118       1.37077093       1.28509147       0.00000000
Si       1.21606480       1.43567029      -1.44324437       0.00000000
Si       2.57302181      -2.66637980       0.11060025       0.00000000
Si       2.61263909       2.75529063      -0.07744555       0.00000000
Si      -0.05916528       2.77695633       2.59702412       0.00000000
Si       2.75445984       0.15960942      -2.63391324       0.00000000
Si      -0.09581778      -2.66880701       2.73073404       0.00000000
Si      -1.51264054      -1.51822801      -3.16796517       0.00000000
