10
Lattice="16.290000149 0.0 0.0 0.0 16.290000149 0.0 0.0 0.0 29.1751946751" Properties=species:S:1:pos:R:3:initial_magmoms:R:1 pbc="T T T"
Si      -1.35956341       1.35743594       1.33975411       0.00000000
Si       1.34874685       1.37357933      -1.33707000       0.00000000
Si       1.38223909      -1.35934513       1.32216147       0.00000000
Si      -1.35557236      -1.37175811      -1.33814948       0.00000000
Si       2.67895568      -0.04616586      -2.62293753       0.00000000
Si       0.00573408      -2.71472201       2.65505942       0.00000000
Si      -2.72601749      -0.01110978      -2.65167509       0.00000000
Si       0.01350441       2.70481443       2.68303843       0.00000000
Si       2.73184931       0.01111955       2.67306051       0.00000000
Si      -2.70392825       0.00218123       2.70512405       0.00000000
