10
Lattice="16.290000149 0.0 0.0 0.0 16.290000149 0.0 0.0 0.0 29.1751946751" Properties=species:S:1:pos:R:3:initial_magmoms:R:1 pbc="T T T"
Si       1.34006428       1.32835177      -1.37800279       0.00000000
Si      -1.44140437       1.36691020       1.23463589       0.00000000
Si       1.34232859      -1.35053875       1.37841125       0.00000000
Si      -1.38324907      -1.34853508      -1.34205896       0.00000000
Si      -0.16115697      -2.70982523       2.53865039       0.00000000
Si       2.69975801       2.63598266       0.01029884       0.00000000
Si      -0.01413972      -2.73562860      -2.65374653       0.00000000
Si      -2.82113481       0.05012433       2.58620596       0.00000000
Si       2.71353935      -0.02668302      -2.70112705       0.00000000
Si      -0.01500309       2.66835089      -2.75270879       0.00000000
