10
Lattice="16.290000149 0.0 0.0 0.0 16.290000149 0.0 0.0 0.0 29.1751946751" Properties=species:S:1:pos:R:3:initial_magmoms:R:1 pbc="T T T"
Si       1.32532183       1.33552621       1.33703790       0.00000000
Si      -1.41654583       1.34307826      -1.25477844       0.00000000
Si       1.23245254      -1.20148167      -1.59455276       0.00000000
Si      -1.46023561      -1.43780070       1.21377271       0.00000000
Si      -2.45706959      -0.51068792      -2.20539965       0.00000000
Si      -0.71135173      -2.05445866      -2.65058569       0.00000000
Si       2.62475706       2.62490905      -0.13540791       0.00000000
Si       2.64214126      -0.10006589       2.61225649       0.00000000
Si       2.53329050      -2.73205750      -0.27862311       0.00000000
Si      -0.11764638       2.66737708       2.61908348       0.00000000
