10
Lattice="16.290000149 0.0 0.0 0.0 16.290000149 0.0 0.0 0.0 29.1751946751" Properties=species:S:1:pos:R:3:initial_magmoms:R:1 pbc="T T T"
Si       1.32287833       1.32730921      -1.36159525       0.00000000
Si      -1.25802784       1.40243869       1.36257495       0.00000000
Si      -1.72485038      -0.93902077      -1.27709046       0.00000000
Si       1.45088336      -1.38484549       1.22459379       0.00000000
Si      -3.43069032       0.72813043      -1.14773465       0.00000000
Si      -2.57302181       2.66637980      -0.11060025       0.00000000
Si      -2.59041953      -2.66667628       0.10522326       0.00000000
Si       2.58732932      -0.09585036      -2.68943071       0.00000000
Si      -2.66883959      -0.00242721       2.62013379       0.00000000
Si       2.81282202       0.01124010       2.54235272       0.00000000
