10
Lattice="16.290000149 0.0 0.0 0.0 16.290000149 0.0 0.0 0.0 29.1751946751" Properties=species:S:1:pos:R:3:initial_magmoms:R:1 pbc="T T T"
Si       1.30264615      -1.37362168       1.38305010       0.00000000
Si      -1.33015996       1.36381510       1.36650777       0.00000000
Si      -1.37787337      -1.37951866      -1.30459801       0.00000000
Si       1.35153244       1.35728281      -1.36671199       0.00000000
Si      -0.00469152      -2.71816571      -2.66646692       0.00000000
Si      -2.68747535       2.70387938      -0.01222441       0.00000000
Si      -2.70039332      -0.00988803      -2.69333727       0.00000000
Si       2.68365209      -0.01218492       2.71419754       0.00000000
Si       2.69848739      -2.71025366       0.03603137       0.00000000
Si       2.69560732       2.71749782      -0.01397492       0.00000000
