10
Lattice="16.290000149 0.0 0.0 0.0 16.290000149 0.0 0.0 0.0 29.1751946751" Properties=species:S:1:pos:R:3:initial_magmoms:R:1 pbc="T T T"
Si       1.34628706       1.33006874      -1.34671823       0.00000000
Si      -1.35614251       1.39513100       1.28928103       0.00000000
Si       1.37044513      -1.36064833       1.31352561       0.00000000
Si      -1.30111489      -1.32730270      -1.42550001       0.00000000
Si      -2.68063844       0.01135576       2.65109159       0.00000000
Si      -0.01684386      -2.71993481       2.61777352       0.00000000
Si       0.03670137       2.73819264       2.61850290       0.00000000
Si       2.72601749       0.01110978       2.65167509       0.00000000
Si      -2.58011611       0.04509887      -2.81319189       0.00000000
Si      -2.65009469       2.74835760      -0.14246248       0.00000000
