10
Lattice="16.290000149 0.0 0.0 0.0 16.290000149 0.0 0.0 0.0 29.1751946751" Properties=species:S:1:pos:R:3:initial_magmoms:R:1 pbc="T T T"
Si       1.36832701      -1.35617509       1.34159215       0.00000000
Si       1.39828572       1.33525873      -1.33415248       0.00000000
Si      -1.35135325       1.36018243       1.35912644       0.00000000
Si      -1.35775522      -1.34744365      -1.36747055       0.00000000
Si       0.08146629       2.77085083      -2.60937106       0.00000000
Si       2.69833753      -2.70523145      -0.05018133       0.00000000
Si       0.02055798      -2.70990668       2.69920149       0.00000000
Si      -2.71077005      -0.00216657       2.70261498       0.00000000
Si       2.68298746       0.00979029       2.73590388       0.00000000
Si      -2.71125875       2.71460635       0.00776060       0.00000000
