10
Lattice="16.290000149 0.0 0.0 0.0 16.290000149 0.0 0.0 0.0 29.1751946751" Properties=species:S:1:pos:R:3:initial_magmoms:R:1 pbc="T T T"
Si      -1.31681943       1.43559210      -1.27521858       0.00000000
Si       1.31401071       1.38405869       1.36364860       0.00000000
Si      -1.39828572      -1.33525873       1.33415248       0.00000000
Si       1.28162782      -1.34503273      -1.45636737       0.00000000
Si      -2.64214126       0.10006589      -2.61225649       0.00000000
Si       2.64715663      -2.69293250      -0.08431631       0.00000000
Si      -0.02995871      -2.69143382       2.67574463       0.00000000
Si       2.65994428       0.02326212       2.71930319       0.00000000
Si       2.69353426       0.04540023      -2.71294300       0.00000000
Si       2.63850664       2.76783393       0.00183804       0.00000000
