10
Lattice="16.290000149 0.0 0.0 0.0 16.290000149 0.0 0.0 0.0 29.1751946751" Properties=species:S:1:pos:R:3:initial_magmoms:R:1 pbc="T T T"
Si      -1.33840270      -1.44752941       1.25482512       0.00000000
Si       1.34385985      -1.36529749      -1.35075316       0.00000000
Si      -1.38746818       1.34244262      -1.34733967       0.00000000
Si       1.25814187       1.36365220       1.45817623       0.00000000
Si      -2.69638598      -0.07646526       2.52076600       0.00000000
Si       2.63640620       2.69159672       0.06756975       0.00000000
Si      -0.02805138       2.70479162      -2.69082820       0.00000000
Si       2.69162888      -0.01156590      -2.70836250       0.00000000
Si       2.68633505      -2.72282465       0.01940150       0.00000000
Si      -0.02707398      -2.71282259      -2.70669951       0.00000000
