10
Lattice="16.290000149 0.0 0.0 0.0 16.290000149 0.0 0.0 0.0 29.1751946751" Properties=species:S:1:pos:R:3:initial_magmoms:R:1 pbc="T T T"
Si       1.40177080       1.41400296       1.25809274       0.00000000
Si      -1.26247501       1.39183390      -1.42865093       0.00000000
Si       1.43210278      -1.28562310      -1.40551500       0.00000000
Si      -1.27949806      -1.59998752       1.28160795       0.00000000
Si      -2.52242507      -2.72574056      -0.34292524       0.00000000
Si       0.28225683      -2.68322366       2.61412662       0.00000000
Si      -2.58660767       2.78435199      -0.06307677       0.00000000
Si       2.85998646       0.11572872       2.53768761       0.00000000
Si      -2.56758095       0.07820829      -2.87533214       0.00000000
Si       2.85767328      -2.64238463      -0.10780234       0.00000000
