10
Lattice="16.290000149 0.0 0.0 0.0 16.290000149 0.0 0.0 0.0 29.1751946751" Properties=species:S:1:pos:R:3:initial_magmoms:R:1 pbc="T T T"
Si      -1.54702873      -1.30582270      -1.19370309       0.00000000
Si      -1.40227579       1.18180693       1.47498114       0.00000000
Si       1.38903202      -1.31406544       1.42978877       0.00000000
Si       0.79179175       1.49800072      -1.70671971       0.00000000
H        1.17799507      -2.09132651      -2.23870021       0.00000000
Si      -1.27250965       2.22861211      -2.55262531       0.00000000
Si      -0.18254574      -2.66009186      -2.51338467       0.00000000
Si      -2.57090086       0.25462899      -2.67201020       0.00000000
Si       0.04316850       2.62442328       2.74748643       0.00000000
H       -0.59753350       3.78719697       0.02590757       0.00000000
