10
Lattice="16.290000149 0.0 0.0 0.0 16.290000149 0.0 0.0 0.0 29.1751946751" Properties=species:S:1:pos:R:3:initial_magmoms:R:1 pbc="T T T"
Si      -1.20005173       1.33408585      -1.53093917       0.00000000
Si       1.34987086       1.46495971       1.27338055       0.00000000
Si      -1.61670106      -1.02281653       1.39734595       0.00000000
Si       1.78109975      -1.57178953      -0.62478679       0.00000000
H       -0.83430865      -1.69580531      -1.78175831       0.00000000
H       -0.18917577      -2.12840255      -1.73764542       0.00000000
H        1.44436915       0.69287887      -2.96542514       0.00000000
Si      -0.04611699      -2.30397617       2.51531023       0.00000000
Si       1.01661004      -3.42689475       0.65696703       0.00000000
Si       0.06556725       1.08616834      -3.47505744       0.00000000
