10
Lattice="16.290000149 0.0 0.0 0.0 16.290000149 0.0 0.0 0.0 29.1751946751" Properties=species:S:1:pos:R:3:initial_magmoms:R:1 pbc="T T T"
Si      -1.39284388      -1.34306164      -1.32922187       0.00000000
Si      -1.35892810       1.35532801       1.35369986       0.00000000
Si       1.32975271      -1.36964692       1.37292631       0.00000000
Si       1.35998695       1.34465806      -1.37210941       0.00000000
Si      -0.03670137      -2.73819264      -2.61850290       0.00000000
Si       2.70695819       2.70154991      -0.01006544       0.00000000
Si      -2.70239211       2.71378370      -0.00898596       0.00000000
Si       2.68931612      -2.72708286       0.03317220       0.00000000
Si       2.70282053      -0.02226843       2.71621062       0.00000000
Si      -0.01019754       2.71661816       2.70378199       0.00000000
