10
Lattice="16.290000149 0.0 0.0 0.0 16.290000149 0.0 0.0 0.0 29.1751946751" Properties=species:S:1:pos:R:3:initial_magmoms:R:1 pbc="T T T"
Si      -0.43357464      -1.27420381       0.70151756       0.00000000
H        0.46727865      -1.50835627      -1.83010161       0.00000000
Si       1.55380537      -0.44914788      -1.96611637       0.00000000
Si       2.73542008      -0.62418394       0.05102742       0.00000000
Si      -1.23989707      -0.29929617       2.65523447       0.00000000
Si      -2.31906071      -2.02870775      -0.52958813       0.00000000
Si       1.57415158      -2.67092471       0.64955653       0.00000000
Si      -2.75028960       1.00804150       1.36857921       0.00000000
Si       0.56091358       1.47771478      -2.86264093       0.00000000
Si      -1.84085147       2.87885028       0.24510081       0.00000000
