10
Lattice="16.290000149 0.0 0.0 0.0 16.290000149 0.0 0.0 0.0 29.1751946751" Properties=species:S:1:pos:R:3:initial_magmoms:R:1 pbc="T T T"
Si       1.31941182      -1.33501438      -1.40668201       0.00000000
Si      -1.34407162       1.36793647      -1.36957116       0.00000000
Si       1.39481986       1.37503891       1.31224191       0.00000000
Si      -1.35472528      -1.37039626       1.37102992       0.00000000
Si      -0.00630423       2.68701923       2.63530781       0.00000000
Si       2.64679922      -2.69283476      -0.03909476       0.00000000
Si      -2.70635546      -2.68869710      -0.02619932       0.00000000
Si       2.66916539       0.03119535      -2.76875515       0.00000000
Si      -2.73114884       2.70896186      -0.03267622       0.00000000
Si       0.03541593      -2.70619256       2.74229325       0.00000000
