10
Lattice="10.86 0.0 0.0 0.0 10.86 0.0 0.0 0.0 10.86" Properties=species:S:1:pos:R:3:initial_magmoms:R:1 pbc="T T T"
Si      -1.36026930      -1.21387650       1.15023690       0.00000000
Si       1.35473070       1.50112350       1.15023690       0.00000000
Si       1.35473070      -1.21387650      -1.56476310       0.00000000
Si      -0.00276930      -2.57137650       2.50773690       0.00000000
Si       0.11000094       2.49606240       2.64337830       0.00000000
Si      -2.48905770      -0.01392252       2.67440532       0.00000000
Si       2.71223070       0.14362350       2.50773690       0.00000000
Si       2.71223070      -2.57137650      -0.20726310       0.00000000
Si      -2.71776930      -2.57137650      -0.20726310       0.00000000
Si      -0.00276930      -2.57137650      -2.92226310       0.00000000
