10
Lattice="16.28999089631971 0.0 0.0 0.0 16.28999089631971 0.0 0.0 0.0 34.35334932831803" Properties=species:S:1:pos:R:3:initial_magmoms:R:1 pbc="T T T"
Si       0.81617787      -1.68194250      -1.45122370       0.00000000
Si       1.35267273       1.46481309       1.31348872       0.00000000
Si      -1.46640299      -1.26403884       1.40309948       0.00000000
Si      -1.70944002       0.37815606      -1.77606915       0.00000000
Si      -1.55423542      -2.19274803      -2.17048018       0.00000000
Si      -0.10199169       1.01139723      -3.39916276       0.00000000
Si       2.55821418       0.01290168       2.75841545       0.00000000
Si       2.12012721      -3.20950467      -0.19763493       0.00000000
Si      -0.16128729      -2.69689095       2.76276115       0.00000000
Si      -0.14351490       2.75543721       2.73254049       0.00000000
