10
Lattice="16.28999089631971 0.0 0.0 0.0 16.28999089631971 0.0 0.0 0.0 34.35334932831803" Properties=species:S:1:pos:R:3:initial_magmoms:R:1 pbc="T T T"
Si      -0.66435507      -1.95189616      -1.17262166       0.00000000
Si       1.31844744      -1.37729067       1.41126730       0.00000000
Si      -1.40048388       1.31580357       1.42507048       0.00000000
Si       1.18974015       1.50779751      -1.56408967       0.00000000
Si      -0.76864365      -1.07675271      -3.36468713       0.00000000
Si       2.54422107       2.70478671      -0.03712225       0.00000000
Si      -2.62532898      -2.65687849      -0.03056763       0.00000000
Si      -2.56178169       2.75895096       0.04314783       0.00000000
Si       2.66041764      -0.02270012       2.77949669       0.00000000
Si      -0.05387103       2.69528964       2.78028682       0.00000000
