10
Lattice="16.28999089631971 0.0 0.0 0.0 16.28999089631971 0.0 0.0 0.0 34.35334932831803" Properties=species:S:1:pos:R:3:initial_magmoms:R:1 pbc="T T T"
Si       2.23083894      -0.28221610       0.78064595       0.00000000
Si      -0.96186113       1.28972491       1.78204664       0.00000000
Si      -1.33368089      -2.07219618       0.18142014       0.00000000
Si       0.88240161       1.02454000      -2.07920328       0.00000000
Si      -0.96009546      -0.25833822      -2.58797666       0.00000000
Si       3.00730179      -2.08363176      -0.50499452       0.00000000
Si       0.08726879       0.47502617       3.74960147       0.00000000
Si       2.04646872      -0.71232327       3.10990739       0.00000000
Si       1.13193183       3.33024289      -1.53569863       0.00000000
Si      -0.62518739      -3.23248401       2.18473682       0.00000000
