10
Lattice="16.28999089631971 0.0 0.0 0.0 16.28999089631971 0.0 0.0 0.0 34.35334932831803" Properties=species:S:1:pos:R:3:initial_magmoms:R:1 pbc="T T T"
Si       1.92513591       1.24835157       0.26428046       0.00000000
Si       0.72337374      -1.76994108      -1.43418443       0.00000000
Si      -1.64478501       1.14230367      -1.31181773       0.00000000
Si      -0.39772035      -0.62239203       2.32077616       0.00000000
Si       2.94456411      -0.01006722       1.97875403       0.00000000
Si      -1.11539259      -3.19028736      -1.25984108       0.00000000
Si       2.75185341       1.37622807      -1.94570609       0.00000000
Si      -3.69380800       0.67942332      -0.25115748       0.00000000
Si       0.34471269      -2.85121101       2.59378238       0.00000000
Si       1.31258304       0.38157696       3.63640712       0.00000000
