10
Lattice="16.28999089631971 0.0 0.0 0.0 16.28999089631971 0.0 0.0 0.0 34.35334932831803" Properties=species:S:1:pos:R:3:initial_magmoms:R:1 pbc="T T T"
Si       0.10428858      -0.87514345       2.19206547       0.00000000
Si      -0.91926099      -1.62793693      -1.45215124       0.00000000
Si      -1.84163337       1.53868335      -0.06523705       0.00000000
Si       2.41844598       0.36130080      -0.67476886       0.00000000
Si       0.62193591      -0.69191353      -3.21873886       0.00000000
Si      -3.22491501       0.28959873      -1.44929991       0.00000000
Si      -0.89878446       3.07274523      -1.65713779       0.00000000
Si       0.76864365       1.07675271       3.36468713       0.00000000
Si       1.95838380       2.58455022       1.80059746       0.00000000
Si       1.63175301      -2.80532926       2.18922548       0.00000000
