10
Lattice="16.28999089631971 0.0 0.0 0.0 16.28999089631971 0.0 0.0 0.0 34.35334932831803" Properties=species:S:1:pos:R:3:initial_magmoms:R:1 pbc="T T T"
Si       1.35448092       1.19698920       1.52696742       0.00000000
Si       1.88113662      -0.99059490      -1.11521340       0.00000000
Si      -1.41856578       1.28291895      -1.52209470       0.00000000
Si      -1.18974015      -1.50779751       1.56408967       0.00000000
Si       0.46006218      -2.22324943      -2.47536632       0.00000000
Si      -2.40951906       2.63757906       0.25847474       0.00000000
Si      -1.95838380      -2.58455022      -1.80059746       0.00000000
Si       0.12243564       2.74636368      -2.64204887       0.00000000
Si       2.25937413       3.06854730       0.38436133       0.00000000
Si       0.10352295       2.54376495       2.98698902       0.00000000
