10
Lattice="16.28999089631971 0.0 0.0 0.0 16.28999089631971 0.0 0.0 0.0 34.35334932831803" Properties=species:S:1:pos:R:3:initial_magmoms:R:1 pbc="T T T"
Si       1.16129781      -1.44314739       1.38192265       0.00000000
Si       1.34200278       1.38642561      -1.34876276       0.00000000
Si      -1.22596911      -1.17045279      -1.69858311       0.00000000
Si      -1.55426148       1.28594889       1.36829467       0.00000000
Si      -1.49532426       0.98464905      -2.75584238       0.00000000
Si      -0.63829107       2.91045285      -1.46504891       0.00000000
Si       2.50791066      -0.06366132       2.73713899       0.00000000
Si       2.56178169      -2.75895096      -0.04314783       0.00000000
Si      -2.78509153      -2.56084339      -0.11813780       0.00000000
Si      -0.20533545       2.64477924       2.73748252       0.00000000
