10
Lattice="16.28999089631971 0.0 0.0 0.0 16.28999089631971 0.0 0.0 0.0 34.35334932831803" Properties=species:S:1:pos:R:3:initial_magmoms:R:1 pbc="T T T"
Si      -1.29085218      -1.38295584      -1.34599044       0.00000000
Si       1.75822857       0.86247405      -1.25809284       0.00000000
Si       1.22218983      -1.47676995       1.38252383       0.00000000
Si      -1.49224545       1.24251975       1.37133838       0.00000000
Si       0.63123750       0.91414593      -3.40327627       0.00000000
Si      -3.27114603       0.14107140      -1.46227659       0.00000000
Si       3.37804101      -0.95198760      -1.22010386       0.00000000
Si       2.47314780      -2.82354570      -0.07749776       0.00000000
Si       2.58968646      -0.12180033       2.73730045       0.00000000
Si      -0.12463479       2.59509474       2.73785011       0.00000000
