10
Lattice="16.28999089631971 0.0 0.0 0.0 16.28999089631971 0.0 0.0 0.0 34.35334932831803" Properties=species:S:1:pos:R:3:initial_magmoms:R:1 pbc="T T T"
Si       1.35690813       1.35617508      -1.35664888       0.00000000
Si      -1.35707103      -1.35619137      -1.35737030       0.00000000
Si       1.35765747      -1.35816246       1.35671758       0.00000000
Si      -1.35780408       1.35760860       1.35757642       0.00000000
Si       0.00288333       2.70962973      -2.71456883       0.00000000
Si       2.71472850      -0.00100998       2.71384741       0.00000000
Si       2.71474479       2.71402803      -0.00010306       0.00000000
Si      -0.00083079      -2.71432614       2.71450012       0.00000000
Si      -2.71457212      -0.00063531       2.71456883       0.00000000
Si      -2.71511783       2.71454931      -0.00034353       0.00000000
