10
Lattice="16.28999089631971 0.0 0.0 0.0 16.28999089631971 0.0 0.0 0.0 34.35334932831803" Properties=species:S:1:pos:R:3:initial_magmoms:R:1 pbc="T T T"
Si       0.56829294      -2.28093624      -0.15534593       0.00000000
Si      -2.05056891       0.37970035       1.21775821       0.00000000
Si       1.71957240       0.77297353       1.56510512       0.00000000
Si       0.35461701      -0.16651475      -2.45922024       0.00000000
Si       3.38162481      -0.79949854       1.04248732       0.00000000
Si      -0.66139029       3.56496550      -0.21804083       0.00000000
Si      -1.80103869       2.68540324       1.76126285       0.00000000
Si       2.08375164      -2.00027583      -2.39913620       0.00000000
Si       2.14630524      -2.76272928       1.59100756       0.00000000
Si       0.07433127      -2.72847141       2.79196697       0.00000000
