10
Lattice="16.28999089631971 0.0 0.0 0.0 16.28999089631971 0.0 0.0 0.0 34.35334932831803" Properties=species:S:1:pos:R:3:initial_magmoms:R:1 pbc="T T T"
Si      -1.35790182       1.35760860      -1.35761077       0.00000000
Si       1.35902583      -1.35619137      -1.35822913       0.00000000
Si      -1.35138582      -1.36067112       1.36420662       0.00000000
Si       1.35817875       1.36573731       1.39598348       0.00000000
Si      -2.56978008       0.03143970       2.83339713       0.00000000
Si      -2.71397916       0.00045612      -2.71529025       0.00000000
Si       0.00087966      -2.71440270      -2.71498107       0.00000000
Si       0.00073305       2.71572219      -2.71501542       0.00000000
Si      -2.71406061       2.71720458       0.00133978       0.00000000
Si       2.71715571      -2.71422351       0.00364146       0.00000000
