10
Lattice="16.28999089631971 0.0 0.0 0.0 16.28999089631971 0.0 0.0 0.0 34.35334932831803" Properties=species:S:1:pos:R:3:initial_magmoms:R:1 pbc="T T T"
Si      -0.48322656       1.48652766      -1.72038234       0.00000000
Si       0.37970361      -1.80530667      -1.47451528       0.00000000
Si       1.89801306       0.82461609       1.20219613       0.00000000
Si      -2.00568996      -0.90424161       0.97024219       0.00000000
Si       1.42094412      -0.92163933       2.66413808       0.00000000
Si      -1.11330747      -0.38410191       3.14092848       0.00000000
Si      -2.50235577       0.61333479      -2.59347320       0.00000000
Si      -3.68478171      -0.15218118      -0.64282023       0.00000000
Si       1.21942053       1.21438692      -3.34275452       0.00000000
Si      -0.58562550       3.66275763      -0.74615516       0.00000000
