10
Lattice="16.28999089631971 0.0 0.0 0.0 16.28999089631971 0.0 0.0 0.0 34.35334932831803" Properties=species:S:1:pos:R:3:initial_magmoms:R:1 pbc="T T T"
Si       0.19119573      -0.04921209       2.31988298       0.00000000
Si       2.29407183      -0.19002285      -0.50657477       0.00000000
Si      -0.56717056      -2.00067590      -1.11823650       0.00000000
Si      -1.24384901       1.83635541      -0.83808478       0.00000000
Si      -1.00201582       1.11179250      -3.07850841       0.00000000
Si       1.24286184       1.99042623       2.82769447       0.00000000
Si      -1.61630048      -1.18597716      -3.08579133       0.00000000
Si      -1.85853329      -3.20429906       0.42216855       0.00000000
Si       1.19677743      -2.09989829       2.84528339       0.00000000
Si      -0.41765931       3.81272337       0.14716983       0.00000000
