10
Lattice="16.28999089631971 0.0 0.0 0.0 16.28999089631971 0.0 0.0 0.0 34.35334932831803" Properties=species:S:1:pos:R:3:initial_magmoms:R:1 pbc="T T T"
Si      -1.34884458      -1.33892397       1.36582466       0.00000000
Si       1.36637262       1.37200896       1.36177096       0.00000000
Si      -1.20554145       1.45191141      -1.44492673       0.00000000
Si       1.14508926      -1.59366699      -1.38072028       0.00000000
Si       0.75543246       2.15689374      -2.58698076       0.00000000
Si       2.28289689       0.22670793      -2.58982075       0.00000000
Si      -2.55821418      -0.01290168      -2.75841545       0.00000000
Si       0.00759114      -2.69874801       2.72233612       0.00000000
Si      -2.71950147      -2.70979263       0.00434570       0.00000000
Si      -2.70892926       0.01400940       2.72346979       0.00000000
