10
Lattice="16.28999089631971 0.0 0.0 0.0 16.28999089631971 0.0 0.0 0.0 34.35334932831803" Properties=species:S:1:pos:R:3:initial_magmoms:R:1 pbc="T T T"
Si       1.35708732      -1.35713619       1.35747336       0.00000000
Si       1.35741312       1.35796969      -1.35778254       0.00000000
Si      -1.35808101       1.35821281       1.35719853       0.00000000
Si      -1.35883035      -1.35835794      -1.35702676       0.00000000
Si       0.00125433      -2.71129131      -2.71467189       0.00000000
Si      -2.71459981      -0.00074934       2.71450012       0.00000000
Si       2.71467963      -2.71466334      -0.00010306       0.00000000
Si       2.71487511      -0.00117288       2.71504977       0.00000000
Si      -0.00154755      -2.71524978       2.71487801       0.00000000
Si       2.71508688       2.71517715      -0.00034353       0.00000000
