10
Lattice="16.28999089631971 0.0 0.0 0.0 16.28999089631971 0.0 0.0 0.0 34.35334932831803" Properties=species:S:1:pos:R:3:initial_magmoms:R:1 pbc="T T T"
Si      -1.35698958      -1.35645201      -1.35805736       0.00000000
Si       1.35791811      -1.35755973       1.35706112       0.00000000
Si      -1.35759231       1.35752715       1.35757642       0.00000000
Si       1.35785295       1.35933534      -1.35702676       0.00000000
Si      -2.71342530       0.00337203      -2.71456883       0.00000000
Si       2.71425609       0.00083079       2.71405353       0.00000000
Si       0.00019548       2.71349046       2.71515283       0.00000000
Si       0.00070047      -2.71438641       2.71436271       0.00000000
Si      -2.71467963       2.71466334       0.00010306       0.00000000
Si       2.71524978      -2.71498914      -0.00006871       0.00000000
