10
Lattice="16.28999089631971 0.0 0.0 0.0 16.28999089631971 0.0 0.0 0.0 34.35334932831803" Properties=species:S:1:pos:R:3:initial_magmoms:R:1 pbc="T T T"
Si      -1.34861652      -1.34105796      -1.38227649       0.00000000
Si       1.36635633       1.37289573      -1.38306662       0.00000000
Si      -1.39577607       1.27876500       1.48612672       0.00000000
Si       1.31600394      -1.32524037       1.53724453       0.00000000
Si       1.94214267       0.67440600       2.89008019       0.00000000
Si       0.21300804       2.50816708       2.82999615       0.00000000
Si      -2.69175308      -2.69329086       0.00340098       0.00000000
Si       2.72362284      -2.69252523       0.01236721       0.00000000
Si      -2.69292759       2.73260093       0.00109931       0.00000000
Si       0.00754227      -2.70065394      -2.74122704       0.00000000
