10
Lattice="16.28999089631971 0.0 0.0 0.0 16.28999089631971 0.0 0.0 0.0 34.35334932831803" Properties=species:S:1:pos:R:3:initial_magmoms:R:1 pbc="T T T"
Si       0.16726572       0.99644301      -2.15948710       0.00000000
Si       0.33104538      -2.31122520      -0.48555051       0.00000000
Si       2.04234246       0.94910427       0.87278168       0.00000000
Si      -2.31555834      -0.26283915       0.71966872       0.00000000
Si      -1.90747755       0.06643062      -2.75998398       0.00000000
Si       2.21079735      -0.08353512      -2.73937196       0.00000000
Si      -2.22091344       0.49588389       2.90997079       0.00000000
Si       3.43567503       0.95447997      -1.03839927       0.00000000
Si      -3.53012445       0.60359337      -1.11672495       0.00000000
Si       1.73407050      -2.35444257      -2.37041678       0.00000000
