10
Lattice="16.28999089631971 0.0 0.0 0.0 16.28999089631971 0.0 0.0 0.0 34.35334932831803" Properties=species:S:1:pos:R:3:initial_magmoms:R:1 pbc="T T T"
Si      -2.07474327      -0.93001239      -0.60049688       0.00000000
Si       2.04353163      -1.07997813      -0.57988486       0.00000000
Si      -0.16726572      -0.99644301       2.15948710       0.00000000
Si       0.34295337       2.38837531      -0.11886266       0.00000000
Si      -2.38624065       0.52157322      -2.33029205       0.00000000
Si       3.26840931      -0.04196304       1.12108783       0.00000000
Si       1.87507674      -0.04733874       3.03226878       0.00000000
Si      -0.31426668       0.48731535      -3.53125146       0.00000000
Si       1.56680478      -3.35088558      -0.21092968       0.00000000
Si       0.16377966      -3.30766821       1.67393659       0.00000000
