10
Lattice="16.28999089631971 0.0 0.0 0.0 16.28999089631971 0.0 0.0 0.0 34.35334932831803" Properties=species:S:1:pos:R:3:initial_magmoms:R:1 pbc="T T T"
Si      -0.31149738       1.45158561      -1.72979517       0.00000000
Si       0.39477186      -2.22635430      -0.55119980       0.00000000
Si       2.07474327       0.93001239       0.60049688       0.00000000
Si      -1.62264690       0.53716275       1.64325903       0.00000000
Si       1.90747755      -0.06643062       2.75998398       0.00000000
Si      -1.08796023       3.25300127      -0.44415470       0.00000000
Si      -0.40808079      -0.32926977       3.47965270       0.00000000
Si       0.13009194      -3.21209478       1.56318133       0.00000000
Si      -1.27233045       2.82289410       1.88510674       0.00000000
Si       1.76047659       1.41732774      -2.93075458       0.00000000
