10
Lattice="16.28999089631971 0.0 0.0 0.0 16.28999089631971 0.0 0.0 0.0 34.35334932831803" Properties=species:S:1:pos:R:3:initial_magmoms:R:1 pbc="T T T"
Si       1.35884664       1.35656604       1.35709547       0.00000000
Si      -1.35759231       1.35749457      -1.35795430       0.00000000
Si       1.35783666      -1.35814454      -1.35778254       0.00000000
Si      -1.35889551      -1.35887759       1.35675194       0.00000000
Si       0.00026064      -2.71145582       2.71611473       0.00000000
Si      -2.71430496       0.00060273       2.71415659       0.00000000
Si       0.00030951      -2.71397929      -2.71453447       0.00000000
Si      -2.71453302       2.71463076      -0.00058401       0.00000000
Si      -2.71427238       0.00070047      -2.71511848       0.00000000
Si      -2.71534752      -2.71484608      -0.00020612       0.00000000
