10
Lattice="16.28999089631971 0.0 0.0 0.0 16.28999089631971 0.0 0.0 0.0 34.35334932831803" Properties=species:S:1:pos:R:3:initial_magmoms:R:1 pbc="T T T"
Si      -2.15982594      -0.54012264       0.67239848       0.00000000
Si       0.68207859       2.21701036       0.27310928       0.00000000
Si      -0.08351883      -0.65187041      -2.26989883       0.00000000
Si       1.73089395      -1.29852544       0.95299680       0.00000000
Si      -0.88720227      -2.86213738      -1.80001345       0.00000000
Si       2.92698720       1.96630726      -0.47187787       0.00000000
Si       2.24520183      -0.81457852      -2.68986876       0.00000000
Si      -2.28053484      -2.86751308       0.11116750       0.00000000
Si       2.66864409      -2.33818582      -0.92372773       0.00000000
Si       3.55498299       0.25040825       1.13139384       0.00000000
