10
Lattice="16.28999089631971 0.0 0.0 0.0 16.28999089631971 0.0 0.0 0.0 34.35334932831803" Properties=species:S:1:pos:R:3:initial_magmoms:R:1 pbc="T T T"
Si      -1.25095797       1.34677575       1.46002160       0.00000000
Si      -1.35448092      -1.19698920      -1.52696742       0.00000000
Si       0.90489321       1.87155810      -1.14260609       0.00000000
Si       1.47336534      -1.36738260       1.42434906       0.00000000
Si       0.52665570      -2.18758410      -2.64218082       0.00000000
Si      -2.54422107      -2.70478671       0.03712225       0.00000000
Si      -2.47314780       2.82354570       0.07749776       0.00000000
Si      -2.59809210      -0.00949707       2.81740907       0.00000000
Si       2.79849168       2.70793557       0.06916020       0.00000000
Si       0.11653866       2.70174537       2.81479822       0.00000000
