10
Lattice="16.28999089631971 0.0 0.0 0.0 16.28999089631971 0.0 0.0 0.0 34.35334932831803" Properties=species:S:1:pos:R:3:initial_magmoms:R:1 pbc="T T T"
Si       1.35594702       1.35757602       1.35661452       0.00000000
Si       1.35694071      -1.35713619      -1.35737030       0.00000000
Si      -1.35793440       1.35700587      -1.35692370       0.00000000
Si      -1.35795069      -1.35803214       1.35702676       0.00000000
Si      -0.00216657       2.71306692      -2.71467189       0.00000000
Si       0.00026064      -2.71393029      -2.71453447       0.00000000
Si       0.00022806      -2.71402803       2.71474059       0.00000000
Si       2.71453302      -2.71463076       0.00058401       0.00000000
Si      -2.71577106      -0.00084708      -2.71346952       0.00000000
Si       2.71467963       2.71490769       0.00024047       0.00000000
