10
Lattice="16.28999089631971 0.0 0.0 0.0 16.28999089631971 0.0 0.0 0.0 34.35334932831803" Properties=species:S:1:pos:R:3:initial_magmoms:R:1 pbc="T T T"
Si      -1.35594702      -1.35757602      -1.35661452       0.00000000
Si       1.35873261       1.35733167      -1.35637405       0.00000000
Si      -1.35500220       1.35778779       1.36235154       0.00000000
Si       1.35834165      -1.35764118       1.36039339       0.00000000
Si      -2.71388142      -0.00057015      -2.71353823       0.00000000
Si       0.00099369      -2.71471221      -2.71398482       0.00000000
Si      -2.71313208       2.71581993       0.00048095       0.00000000
Si       0.00141723       2.71521720      -2.71395047       0.00000000
Si      -2.71389771      -2.71560816       0.00041224       0.00000000
Si       2.71617831       0.00016290      -2.71398482       0.00000000
