10
Lattice="16.28999089631971 0.0 0.0 0.0 16.28999089631971 0.0 0.0 0.0 34.35334932831803" Properties=species:S:1:pos:R:3:initial_magmoms:R:1 pbc="T T T"
Si       2.20012740       0.31097610      -0.62207080       0.00000000
Si      -0.25889697      -0.87516396       2.12231675       0.00000000
Si      -0.73757862      -1.66858470      -1.47001499       0.00000000
Si      -1.23621552       2.09784249      -0.23731307       0.00000000
Si      -2.63248029      -0.36686709      -1.99967523       0.00000000
Si       1.67565456       1.80551844      -2.38745605       0.00000000
Si      -0.21709683       1.15841448       3.27257059       0.00000000
Si      -3.45919779      -0.49474359       0.21031132       0.00000000
Si      -2.43976959      -1.75316238       1.92478489       0.00000000
Si      -1.86127911       1.81183896      -2.47811459       0.00000000
