10
Lattice="16.28999089631971 0.0 0.0 0.0 16.28999089631971 0.0 0.0 0.0 34.35334932831803" Properties=species:S:1:pos:R:3:initial_magmoms:R:1 pbc="T T T"
Si       1.27392687       0.04551426       1.94749246       0.00000000
Si      -0.70752357       2.16453375      -0.49616570       0.00000000
Si      -1.92800295      -1.17687105       0.60224890       0.00000000
Si       1.53525105      -1.02045447      -1.45964028       0.00000000
Si       2.18460303      -2.10333222       1.88239283       0.00000000
Si      -1.39362579      -1.89152964       2.75252930       0.00000000
Si      -1.83298338       1.82120571      -2.56829218       0.00000000
Si      -0.29634768      -0.01345554       3.69236876       0.00000000
Si       3.08578212       0.62235945      -2.01410364       0.00000000
Si      -1.96980309      -3.21044949      -0.54800493       0.00000000
