10
Lattice="16.28999089631971 0.0 0.0 0.0 16.28999089631971 0.0 0.0 0.0 34.35334932831803" Properties=species:S:1:pos:R:3:initial_magmoms:R:1 pbc="T T T"
Si       1.55952315       1.57540590      -0.84622653       0.00000000
Si      -0.31508118       0.42819894       2.34899612       0.00000000
Si       1.07095347      -2.16002142      -0.32257813       0.00000000
Si      -2.45201967       0.10601532      -0.67741407       0.00000000
Si       0.52737246       2.10367431      -2.83033968       0.00000000
Si       3.23903844      -1.68490728       0.48170293       0.00000000
Si      -1.93489362       2.24266059       2.31100714       0.00000000
Si      -0.69331869      -3.63094326       0.84942139       0.00000000
Si      -0.56990565       0.22560021      -3.77017914       0.00000000
Si      -3.06188469       2.29433247       0.16582371       0.00000000
