10
Lattice="16.28999089631971 0.0 0.0 0.0 16.28999089631971 0.0 0.0 0.0 34.35334932831803" Properties=species:S:1:pos:R:3:initial_magmoms:R:1 pbc="T T T"
Si      -1.03215069       0.52826841      -1.98411315       0.00000000
Si      -1.55952315      -1.57540590       0.84622653       0.00000000
Si       0.04064355       2.00000475       1.49103925       0.00000000
Si       2.50616763      -0.09835902      -0.56566257       0.00000000
Si       2.47987557      -0.84159027       1.71522934       0.00000000
Si       1.43868393       0.95171067       3.04631931       0.00000000
Si      -0.48856968      -3.73542732       0.52364840       0.00000000
Si       0.53812386       0.58723821      -3.72898945       0.00000000
Si      -2.12942880      -1.34980569      -2.92395261       0.00000000
Si      -1.87460433      -1.14720696       3.19522265       0.00000000
