10
Lattice="16.28999089631971 0.0 0.0 0.0 16.28999089631971 0.0 0.0 0.0 34.35334932831803" Properties=species:S:1:pos:R:3:initial_magmoms:R:1 pbc="T T T"
Si      -0.91774602      -1.83000231      -1.16238779       0.00000000
Si      -1.44233289       1.25244036       1.46147475       0.00000000
Si       1.27452960      -1.43992197       1.47231667       0.00000000
Si       1.55299086       1.26985437      -1.43651500       0.00000000
Si      -2.67597459      -2.69247636       0.09570505       0.00000000
Si       2.59566489      -2.80808649       0.08736749       0.00000000
Si       2.73414618       2.69130348       0.09274722       0.00000000
Si      -3.02174613       2.36672523       0.08896835       0.00000000
Si      -0.08819406       2.61925281       2.83218102       0.00000000
Si       2.62749555      -0.09803322       2.83723097       0.00000000
