10
Lattice="16.28999089631971 0.0 0.0 0.0 16.28999089631971 0.0 0.0 0.0 34.35334932831803" Properties=species:S:1:pos:R:3:initial_magmoms:R:1 pbc="T T T"
Si       1.35744570      -1.35716877      -1.35761077       0.00000000
Si      -1.35873261      -1.35733167       1.35637405       0.00000000
Si      -1.35731538       1.35788553      -1.35757642       0.00000000
Si       1.35811359       1.35729909       1.35747336       0.00000000
Si       2.71383255       0.00231318      -2.71412223       0.00000000
Si       0.00097740       2.71353933      -2.71491236       0.00000000
Si       0.00037467      -2.71394658      -2.71501542       0.00000000
Si      -2.71467963      -2.71490769      -0.00024047       0.00000000
Si      -2.71464705       2.71531494      -0.00044659       0.00000000
Si       2.71526607      -2.71472850      -0.00003435       0.00000000
