10
Lattice="16.28999089631971 0.0 0.0 0.0 16.28999089631971 0.0 0.0 0.0 34.35334932831803" Properties=species:S:1:pos:R:3:initial_magmoms:R:1 pbc="T T T"
Si      -1.33812576      -1.35246096      -1.38567747       0.00000000
Si       1.37354022       1.36474362      -1.38495605       0.00000000
Si       1.43472546      -1.23681825       1.51092985       0.00000000
Si      -1.51791849       1.23880563       1.53212588       0.00000000
Si       0.31302864       2.18369079       2.73665804       0.00000000
Si      -2.70000234      -2.70414000       0.01308863       0.00000000
Si      -2.69710272       2.72749986       0.00666455       0.00000000
Si       2.73733902      -2.69237862      -0.00439723       0.00000000
Si      -2.69625564       0.00557118      -2.74754806       0.00000000
Si       0.01687644      -2.71024875      -2.74802901       0.00000000
