10
Lattice="16.28999089631971 0.0 0.0 0.0 16.28999089631971 0.0 0.0 0.0 34.35334932831803" Properties=species:S:1:pos:R:3:initial_magmoms:R:1 pbc="T T T"
Si      -1.23419556       0.11813508       1.98095264       0.00000000
Si       0.56353626      -2.23283772      -0.50853291       0.00000000
Si       1.86281037       1.46471535       0.03060885       0.00000000
Si      -1.54828305       0.46384146      -1.78328336       0.00000000
Si       2.35239003      -1.10151351      -1.65971429       0.00000000
Si      -2.34833382      -1.94051367       1.64161007       0.00000000
Si      -2.88233631       1.64437776       1.39883481       0.00000000
Si      -0.73609623       2.52336987      -2.50590647       0.00000000
Si      -1.18490202      -2.79995778      -2.04996856       0.00000000
Si       2.76486912       1.33042059      -2.11080838       0.00000000
