10
Lattice="16.28999089631971 0.0 0.0 0.0 16.28999089631971 0.0 0.0 0.0 34.35334932831803" Properties=species:S:1:pos:R:3:initial_magmoms:R:1 pbc="T T T"
Si       1.18115532       1.42144911       1.52926223       0.00000000
Si      -1.55299086      -1.26985437       1.43651500       0.00000000
Si       1.19998656       0.66531618      -2.06137388       0.00000000
Si       1.06432344      -1.76710662      -1.39206720       0.00000000
Si       2.46236382      -2.81540070       0.16321285       0.00000000
Si       2.43108702      -0.01066995       2.90865647       0.00000000
Si       3.04948800       2.29350168       0.22963736       0.00000000
Si      -2.47073688      -3.09985668       0.27412721       0.00000000
Si      -0.27262944       2.70000234       2.91217082       0.00000000
Si      -0.27846126      -2.70977634       2.90883167       0.00000000
