10
Lattice="16.28999089631971 0.0 0.0 0.0 16.28999089631971 0.0 0.0 0.0 34.35334932831803" Properties=species:S:1:pos:R:3:initial_magmoms:R:1 pbc="T T T"
Si      -1.35016407      -1.36256076      -1.39395663       0.00000000
Si       1.36735002       1.35195597      -1.38835704       0.00000000
Si       1.34627076      -1.37862270       1.45142982       0.00000000
Si      -1.41346701       1.44990774       1.59354971       0.00000000
Si      -2.69348634       2.70352098      -0.02765446       0.00000000
Si      -2.69250405      -2.71768188      -0.01068390       0.00000000
Si       2.72043000      -2.71193151      -0.02253581       0.00000000
Si       2.72114676       2.71554300       0.00700809       0.00000000
Si      -2.70517279      -0.00579924      -2.75297589       0.00000000
Si       0.00951336       2.71142163      -2.75414391       0.00000000
