10
Lattice="16.28999089631971 0.0 0.0 0.0 16.28999089631971 0.0 0.0 0.0 34.35334932831803" Properties=species:S:1:pos:R:3:initial_magmoms:R:1 pbc="T T T"
Si       1.35500872      -1.35676152       1.35901926       0.00000000
Si       1.35676804       1.35824391      -1.35699241       0.00000000
Si      -1.35811939      -1.35721764      -1.35750771       0.00000000
Si      -1.35827848       1.35931905       1.36135529       0.00000000
Si       2.71374133      -2.71369083      -0.00006871       0.00000000
Si       2.71457212       0.00063531      -2.71456883       0.00000000
Si      -0.00094808      -2.71430007      -2.71518719       0.00000000
Si      -0.00054572       2.71518462      -2.71491236       0.00000000
Si      -2.71538077       0.00042354      -2.71522154       0.00000000
Si      -2.71699348      -2.71372667      -0.00079013       0.00000000
