10
Lattice="16.28999089631971 0.0 0.0 0.0 16.28999089631971 0.0 0.0 0.0 34.35334932831803" Properties=species:S:1:pos:R:3:initial_magmoms:R:1 pbc="T T T"
Si       0.95548248       2.05467399       0.52440417       0.00000000
Si       0.90605862      -2.20470652       0.29602298       0.00000000
Si      -2.13832314       0.49221864       0.98566685       0.00000000
Si       0.07547157       0.06266763      -2.41713736       0.00000000
Si      -1.33796286       2.91094155       1.37296673       0.00000000
Si      -1.67102820      -1.57309272      -2.65324806       0.00000000
Si      -1.91731671      -0.97950141       2.84073333       0.00000000
Si      -0.54923364       2.30583321      -2.69316668       0.00000000
Si       0.42465328       2.20226139       2.80478390       0.00000000
Si      -0.22046886      -3.18836921      -1.65390857       0.00000000
