10
Lattice="16.28999089631971 0.0 0.0 0.0 16.28999089631971 0.0 0.0 0.0 34.35334932831803" Properties=species:S:1:pos:R:3:initial_magmoms:R:1 pbc="T T T"
Si      -2.16808497      -0.47511414      -0.80428106       0.00000000
Si       0.22100643      -1.47172005       1.85506648       0.00000000
Si       2.13832314      -0.49221864      -0.98566685       0.00000000
Si       0.80036028       2.41872291       0.38729988       0.00000000
Si       1.19576745       0.22191867       3.11884755       0.00000000
Si       3.09380562       1.56245535      -0.46126268       0.00000000
Si       2.56297642       1.71004275       1.81911705       0.00000000
Si      -3.23903844       1.68490728      -0.48170293       0.00000000
Si      -1.79351271      -1.38127797      -2.99259064       0.00000000
Si       0.82665234       3.16195416      -1.89359203       0.00000000
