10
Lattice="16.28999089631971 0.0 0.0 0.0 16.28999089631971 0.0 0.0 0.0 34.35334932831803" Properties=species:S:1:pos:R:3:initial_magmoms:R:1 pbc="T T T"
Si       1.02269632       1.63404990      -1.40354122       0.00000000
Si       0.06796188       1.27852065       2.04017785       0.00000000
Si      -1.84213836      -1.10973996      -1.27049063       0.00000000
Si       1.62574593      -1.99694223       0.25514247       0.00000000
Si      -1.48633218      -0.37778139       2.71206103       0.00000000
Si      -0.00040725      -2.40696153       2.12145792       0.00000000
Si       2.27094722       0.20567754      -2.76936245       0.00000000
Si      -0.46661076      -2.51046819      -2.75163611       0.00000000
Si       2.48685813       2.83384098       0.01727974       0.00000000
Si       3.55096655      -1.04793570      -1.14815828       0.00000000
