10
Lattice="16.28999089631971 0.0 0.0 0.0 16.28999089631971 0.0 0.0 0.0 34.35334932831803" Properties=species:S:1:pos:R:3:initial_magmoms:R:1 pbc="T T T"
Si      -1.32493086       1.33920090      -1.48169514       0.00000000
Si      -1.81560195      -0.72604530       1.48306927       0.00000000
Si       1.37552760      -1.40072823      -1.48114548       0.00000000
Si       1.84213836       1.10973996       1.27049063       0.00000000
Si      -2.66543496      -2.67001245      -0.04211723       0.00000000
Si      -0.87110775      -1.19384523       3.53870614       0.00000000
Si      -2.62754442       2.79476127       0.03363195       0.00000000
Si       3.46788429      -0.88720227       1.52563310       0.00000000
Si       2.77669014      -2.73266379      -0.02837588       0.00000000
Si       0.02901249       2.67556734      -2.86562059       0.00000000
