10
Lattice="16.28999089631971 0.0 0.0 0.0 16.28999089631971 0.0 0.0 0.0 34.35334932831803" Properties=species:S:1:pos:R:3:initial_magmoms:R:1 pbc="T T T"
Si       0.94504156       0.95532705       1.96913508       0.00000000
Si      -0.58209057      -2.37555441      -0.12631734       0.00000000
Si       1.62615318       0.41001930      -1.86631545       0.00000000
Si      -1.48592493       2.02918014       0.59060311       0.00000000
Si      -2.71283886       0.10337634       0.14675759       0.00000000
Si       0.00040725       2.40696153      -2.12145792       0.00000000
Si       0.06836913       3.68548218      -0.08128007       0.00000000
Si       3.02261669      -0.18107964       2.17553012       0.00000000
Si      -2.96727237      -0.79594569       2.22125446       0.00000000
Si       0.93495903      -1.43544222      -3.42032443       0.00000000
