10
Lattice="16.28999089631971 0.0 0.0 0.0 16.28999089631971 0.0 0.0 0.0 34.35334932831803" Properties=species:S:1:pos:R:3:initial_magmoms:R:1 pbc="T T T"
Si       1.55053107       1.64281392      -0.55446337       0.00000000
Si      -1.04602977      -1.00385496      -1.83275221       0.00000000
Si      -1.53525105       1.02045447       1.45964028       0.00000000
Si       1.36493910      -1.61538156       1.17361413       0.00000000
Si       2.05742700       0.73197486      -2.68708613       0.00000000
Si       0.64935198      -1.08287775       3.34203310       0.00000000
Si      -0.26132418       1.06596873       3.40713274       0.00000000
Si      -3.24615717      -1.31483106      -1.21068141       0.00000000
Si       0.30452526      -2.76687279      -2.65980956       0.00000000
Si       2.97852876       2.05848585       1.36798549       0.00000000
