10
Lattice="16.28999089631971 0.0 0.0 0.0 16.28999089631971 0.0 0.0 0.0 34.35334932831803" Properties=species:S:1:pos:R:3:initial_magmoms:R:1 pbc="T T T"
Si       1.81980477       0.11490966       1.44318501       0.00000000
Si      -0.91067616       2.14884648       0.06509963       0.00000000
Si       0.71558712      -0.53250381      -2.16841897       0.00000000
Si      -1.89486909      -1.42845381       0.47483226       0.00000000
Si      -2.18460303       2.10333222      -1.88239283       0.00000000
Si      -0.64935198       1.08287775      -3.34203310       0.00000000
Si      -0.14993316      -2.70184311      -2.37264975       0.00000000
Si       2.44450998      -2.12825592       1.71921433       0.00000000
Si      -3.57822882       0.21180258       0.87013647       0.00000000
Si       1.05736761       1.46324925       3.22842651       0.00000000
