10
Lattice="16.28999089631971 0.0 0.0 0.0 16.28999089631971 0.0 0.0 0.0 34.35334932831803" Properties=species:S:1:pos:R:3:initial_magmoms:R:1 pbc="T T T"
Si      -1.24993170       1.43211906      -1.37939424       0.00000000
Si       1.35656604       1.35866745       1.36182593       0.00000000
Si      -1.35658233      -1.35721764       1.36508950       0.00000000
Si       1.38253230      -1.30943907      -1.42258673       0.00000000
Si       0.61840098       2.30417163      -2.67901910       0.00000000
Si      -2.43108702       0.01066995      -2.90865647       0.00000000
Si      -2.70954828      -2.69910639       0.00017520       0.00000000
Si      -2.70371646       2.71067229       0.00351435       0.00000000
Si       2.72954880      -2.70198972      -0.01202711       0.00000000
Si       0.00006516      -2.71164969       2.72132614       0.00000000
