10
Lattice="16.28999089631971 0.0 0.0 0.0 16.28999089631971 0.0 0.0 0.0 34.35334932831803" Properties=species:S:1:pos:R:3:initial_magmoms:R:1 pbc="T T T"
Si      -1.28001933       1.25361324      -1.62120417       0.00000000
Si       0.67657257       1.98180882       1.34771700       0.00000000
Si      -1.92522062      -0.94900653       1.40330075       0.00000000
Si       1.41346701      -1.44990774      -1.59354971       0.00000000
Si       0.61089129      -0.66054321       3.46584264       0.00000000
Si      -2.52827023       2.68198560      -0.25538294       0.00000000
Si       2.60187138       2.65873977      -0.04981238       0.00000000
Si      -2.61641477      -2.79446805      -0.15070823       0.00000000
Si      -3.55096655       1.04793570       1.14815828       0.00000000
Si       2.75973777      -2.82853044      -0.14211989       0.00000000
