10
Lattice="16.28999089631971 0.0 0.0 0.0 16.28999089631971 0.0 0.0 0.0 34.35334932831803" Properties=species:S:1:pos:R:3:initial_magmoms:R:1 pbc="T T T"
Si       1.48225968       1.20332601       1.41680162       0.00000000
Si       1.42412067      -1.25859798      -1.50783805       0.00000000
Si      -1.26394110       1.44809955      -1.51573933       0.00000000
Si      -1.70052939      -0.71654823       1.61244406       0.00000000
Si      -2.58046632      -2.49645879       0.01432535       0.00000000
Si      -2.72753244       2.68980480      -0.16204484       0.00000000
Si       2.91191278      -2.54743020      -0.15235719       0.00000000
Si       2.73204477       2.77167834      -0.04593045       0.00000000
Si       0.07609059      -2.61565272      -2.88492718       0.00000000
Si      -2.64165156       0.10510308      -2.88156055       0.00000000
