10
Lattice="16.28999089631971 0.0 0.0 0.0 16.28999089631971 0.0 0.0 0.0 34.35334932831803" Properties=species:S:1:pos:R:3:initial_magmoms:R:1 pbc="T T T"
Si       1.24993170      -1.43211906       1.37939424       0.00000000
Si      -1.45378476       1.27855323       1.38290859       0.00000000
Si      -1.18115532      -1.42144911      -1.52926223       0.00000000
Si       1.86833268       0.87205257      -1.29962486       0.00000000
Si       0.01883124      -0.75613293      -3.59063610       0.00000000
Si       2.60649774      -0.07345161       2.74122017       0.00000000
Si       2.63246400      -2.74155813      -0.04319249       0.00000000
Si      -2.82393666       2.54663199      -0.03072222       0.00000000
Si      -0.10438632       2.64355749       2.74183853       0.00000000
Si      -2.73414618      -2.69130348      -0.09274722       0.00000000
