10
Lattice="16.28999089631971 0.0 0.0 0.0 16.28999089631971 0.0 0.0 0.0 34.35334932831803" Properties=species:S:1:pos:R:3:initial_magmoms:R:1 pbc="T T T"
Si      -1.35369900      -1.34807895       1.37270564       0.00000000
Si       1.35962856       1.36331403       1.37009478       0.00000000
Si      -1.31256675       1.30825057      -1.47265333       0.00000000
Si       1.47284406      -1.21404483      -1.44804945       0.00000000
Si       0.49373361       2.37776075      -2.59850563       0.00000000
Si       2.36343465       0.74293218      -2.76060376       0.00000000
Si       2.72097805      -2.68480377       0.00824481       0.00000000
Si      -2.70309744      -2.71308321       0.01377570       0.00000000
Si      -2.71292031       2.72364632      -0.01932377       0.00000000
Si       0.00146610      -2.70774009       2.73035077       0.00000000
