10
Lattice="16.28999089631971 0.0 0.0 0.0 16.28999089631971 0.0 0.0 0.0 34.35334932831803" Properties=species:S:1:pos:R:3:initial_magmoms:R:1 pbc="T T T"
Si       1.35729909       1.35703845      -1.35767948       0.00000000
Si      -1.35760860       1.35716877       1.35750771       0.00000000
Si       1.35775521      -1.35760860       1.35750771       0.00000000
Si      -1.35633798      -1.35940050      -1.35723288       0.00000000
Si       2.71363707       0.00086337       2.71415659       0.00000000
Si      -0.00009774       2.71303434       2.71498107       0.00000000
Si      -0.00013032      -2.71619460      -2.71267939       0.00000000
Si       2.71301805      -0.00030951      -2.71594296       0.00000000
Si      -2.71420722       2.71484253       0.00048095       0.00000000
Si       2.71490769      -2.71419093       0.00048095       0.00000000
