10
Lattice="16.28999089631971 0.0 0.0 0.0 16.28999089631971 0.0 0.0 0.0 34.35334932831803" Properties=species:S:1:pos:R:3:initial_magmoms:R:1 pbc="T T T"
Si      -1.35290079       1.35663120       1.35699241       0.00000000
Si      -1.35588186      -1.35847197      -1.35664888       0.00000000
Si       1.35859574       1.35651717      -1.35661452       0.00000000
Si       1.35816246      -1.35783666       1.36619911       0.00000000
Si      -0.00677664       2.69232975       2.72741699       0.00000000
Si      -2.69531082      -0.01314603       2.72879112       0.00000000
Si      -2.71373481       2.71217097       0.00082448       0.00000000
Si      -2.71363707      -0.00086337      -2.71415659       0.00000000
Si       0.00140094       2.71406061      -2.71419094       0.00000000
Si       0.00127062      -2.71505430      -2.71367564       0.00000000
