10
Lattice="16.28999089631971 0.0 0.0 0.0 16.28999089631971 0.0 0.0 0.0 34.35334932831803" Properties=species:S:1:pos:R:3:initial_magmoms:R:1 pbc="T T T"
Si      -0.29307339      -1.25248923      -2.05082739       0.00000000
Si       0.70849350      -1.16028783       2.00331669       0.00000000
Si      -2.42408232       0.10854027       0.15805985       0.00000000
Si       1.33368089       2.07219618      -0.18142014       0.00000000
Si       0.37358543       1.81385796      -2.76939680       0.00000000
Si       0.37181976       3.36192110       1.60062650       0.00000000
Si       1.19186667      -0.24633738      -3.61703182       0.00000000
Si       0.31830660      -3.47307687       1.70062916       0.00000000
Si      -3.40801461       0.74344302      -1.85360471       0.00000000
Si      -3.16195416       1.47258702       1.87510991       0.00000000
