10
Lattice="16.28999089631971 0.0 0.0 0.0 16.28999089631971 0.0 0.0 0.0 34.35334932831803" Properties=species:S:1:pos:R:3:initial_magmoms:R:1 pbc="T T T"
Si      -2.04902299      -0.46288035       1.06066025       0.00000000
Si       1.64478501      -1.14230367       1.31181773       0.00000000
Si       0.26427267       2.40541398       0.09127690       0.00000000
Si      -0.56951469      -0.72013203      -2.26436793       0.00000000
Si      -2.64708981       0.41627466      -2.47076297       0.00000000
Si      -3.70580300       0.33780573      -0.36881776       0.00000000
Si       2.36815875      -2.91224475      -0.12236670       0.00000000
Si       3.56992092       0.10604790       1.57609819       0.00000000
Si      -1.82337391       3.47240898      -0.56552515       0.00000000
Si      -2.66330765      -2.76065001       1.05337734       0.00000000
