10
Lattice="16.28999089631971 0.0 0.0 0.0 16.28999089631971 0.0 0.0 0.0 34.35334932831803" Properties=species:S:1:pos:R:3:initial_magmoms:R:1 pbc="T T T"
Si       2.13584543      -0.28209393       0.79558966       0.00000000
Si      -0.95548248      -2.05467399      -0.52440417       0.00000000
Si      -0.53082920       0.14758740       2.28037973       0.00000000
Si      -2.29344534       0.85626756       0.84856256       0.00000000
Si      -2.26715328       1.59949881      -1.43232935       0.00000000
Si       3.07603907       0.01482390      -1.43562727       0.00000000
Si      -3.09380562      -1.56245535       0.46126268       0.00000000
Si      -1.50471612       0.25115922      -3.21757085       0.00000000
Si      -0.88001091      -1.99200636      -2.94154153       0.00000000
Si       2.40520058      -2.43719577       1.85284893       0.00000000
