10
Lattice="16.28999089631971 0.0 0.0 0.0 16.28999089631971 0.0 0.0 0.0 34.35334932831803" Properties=species:S:1:pos:R:3:initial_magmoms:R:1 pbc="T T T"
Si       1.24825090      -1.42837236      -1.36582123       0.00000000
Si       1.46416182       1.19979108       1.42082097       0.00000000
Si      -1.02269632      -1.63404990       1.40354122       0.00000000
Si      -1.48779211       1.28883222      -1.35548086       0.00000000
Si      -0.16422961       2.01346029       2.95641654       0.00000000
Si      -0.95473444      -0.35552925       3.44371907       0.00000000
Si       3.20484280      -0.70017678       1.60309994       0.00000000
Si       2.52827023      -2.68198560       0.25538294       0.00000000
Si       2.59263202      -0.06744060      -2.73428766       0.00000000
Si      -0.12238060       2.65083912      -2.72597415       0.00000000
