10
Lattice="16.28999089631971 0.0 0.0 0.0 16.28999089631971 0.0 0.0 0.0 34.35334932831803" Properties=species:S:1:pos:R:3:initial_magmoms:R:1 pbc="T T T"
Si       2.31244695       0.36137736      -0.31849008       0.00000000
Si      -0.99098586      -1.07939169       1.87414802       0.00000000
Si      -0.73956600       2.28341817       0.10972466       0.00000000
Si      -1.06679952      -0.94495032      -1.96796707       0.00000000
Si      -3.07863244      -0.01239669       1.21734597       0.00000000
Si      -3.23735080      -0.79874757      -0.99191916       0.00000000
Si       0.75686598       2.99323863       1.72780267       0.00000000
Si       0.37548450      -0.32040801       3.72521058       0.00000000
Si       2.72618037      -0.16641864      -2.67757025       0.00000000
Si       2.91167460       2.51572986       0.54886377       0.00000000
