10
Lattice="16.28999089631971 0.0 0.0 0.0 16.28999089631971 0.0 0.0 0.0 34.35334932831803" Properties=species:S:1:pos:R:3:initial_magmoms:R:1 pbc="T T T"
Si      -2.13391411      -0.82481157       0.45490731       0.00000000
Si      -0.15871836      -0.78635088      -2.20926513       0.00000000
Si       0.04461179       2.32554411      -0.34982035       0.00000000
Si       2.08764658      -1.06699500       0.65680205       0.00000000
Si       3.07863244       0.01239669      -1.21734597       0.00000000
Si       2.33906644       2.29581486      -1.10762131       0.00000000
Si      -1.88242909      -3.13460325       0.19670739       0.00000000
Si      -0.82371590      -3.05613432      -1.90523782       0.00000000
Si      -2.64081004       0.08602749       2.58753007       0.00000000
Si      -0.89344690       3.22193394       1.71890515       0.00000000
