10
Lattice="16.28999089631971 0.0 0.0 0.0 16.28999089631971 0.0 0.0 0.0 34.35334932831803" Properties=species:S:1:pos:R:3:initial_magmoms:R:1 pbc="T T T"
Si       1.49643198       0.70982046       1.61807801       0.00000000
Si       0.73956600      -2.28341817      -0.10972466       0.00000000
Si      -2.29445464       0.02972925       0.75780096       0.00000000
Si       1.00968678       1.42780221      -1.90039399       0.00000000
Si      -2.33906644      -2.29581486       1.10762131       0.00000000
Si       3.05201295      -1.92204081      -0.42821474       0.00000000
Si       3.65124060       0.23231169       0.43913911       0.00000000
Si      -0.27093528       3.42173079      -1.43490585       0.00000000
Si      -0.25141986      -3.36280986       1.76442336       0.00000000
Si       1.10166012       2.93617476       2.16927781       0.00000000
