10
Lattice="16.28999089631971 0.0 0.0 0.0 16.28999089631971 0.0 0.0 0.0 34.35334932831803" Properties=species:S:1:pos:R:3:initial_magmoms:R:1 pbc="T T T"
Si       1.34977311       1.34413092       1.38864217       0.00000000
Si      -1.36549296      -1.37386602       1.38991324       0.00000000
Si       1.49618763      -1.29062412      -1.41905177       0.00000000
Si      -1.22535661       1.56436195      -1.46347411       0.00000000
Si      -2.69119988       2.69996066       0.04478305       0.00000000
Si       2.72103273       2.68205795       0.03658634       0.00000000
Si      -2.71698952      -2.70479160       0.02631124       0.00000000
Si       2.70172908      -2.74253553       0.02587496       0.00000000
Si      -0.00555489       2.70416348       2.74934474       0.00000000
Si       2.70904329      -0.01219850       2.74858897       0.00000000
