10
Lattice="10.86 0.0 0.0 0.0 10.86 0.0 0.0 0.0 10.86" Properties=species:S:1:pos:R:3:initial_magmoms:R:1 pbc="T T T"
Si      -1.55207862      -0.45474078      -1.71438132       0.00000000
Si      -1.04463426      -1.50090630       1.62266862       0.00000000
Si       1.67036574      -1.50090630      -1.09233138       0.00000000
Si       1.67036574       1.21409370       1.62266862       0.00000000
Si      -2.42246418       2.64768972       0.61886796       0.00000000
Si      -2.40213426      -2.85840630       0.26516862       0.00000000
Si       1.45058106       0.84828546      -3.37342008       0.00000000
Si       0.31286574      -2.85840630      -2.44983138       0.00000000
Si      -2.40213426      -0.14340630       2.98016862       0.00000000
Si       2.91107730       2.48968758       0.31171458       0.00000000
