10
Lattice="10.86 0.0 0.0 0.0 10.86 0.0 0.0 0.0 10.86" Properties=species:S:1:pos:R:3:initial_magmoms:R:1 pbc="T T T"
Si       1.39027548       1.07798532      -1.39339230       0.00000000
Si      -1.21428918       1.21786212       1.53386640       0.00000000
Si      -1.31807820      -1.61007102      -1.50427290       0.00000000
Si      -2.41547034       2.46302628      -0.00235662       0.00000000
Si      -2.41547034      -0.25197372       2.71264338       0.00000000
Si      -2.41547034      -0.25197372      -2.71735662       0.00000000
Si       0.29952966       2.46302628       2.71264338       0.00000000
Si       0.29952966       2.46302628      -2.71735662       0.00000000
Si      -2.41547034      -2.96697372      -0.00235662       0.00000000
Si       3.01452966       2.46302628      -0.00235662       0.00000000
