10
Lattice="10.86 0.0 0.0 0.0 10.86 0.0 0.0 0.0 10.86" Properties=species:S:1:pos:R:3:initial_magmoms:R:1 pbc="T T T"
Si       1.19774940       1.07503140       1.43810292       0.00000000
Si      -1.51725060       1.07503140      -1.27689708       0.00000000
Si       1.19774940      -1.63996860      -1.27689708       0.00000000
Si       2.55524940       2.43253140       0.08060292       0.00000000
Si      -0.15975060       2.43253140      -2.63439708       0.00000000
Si       2.55524940      -0.28246860      -2.63439708       0.00000000
Si      -3.00434298       2.27635374       0.03288408       0.00000000
Si      -0.06165222       2.50464180       2.84855628       0.00000000
Si      -0.33354318      -2.83845648       2.50041726       0.00000000
Si       2.55524940      -0.28246860       2.79560292       0.00000000
