10
Lattice="16.28999089631971 0.0 0.0 0.0 16.28999089631971 0.0 0.0 0.0 34.2284985734139" Properties=species:S:1:pos:R:3:initial_magmoms:R:1 pbc="T T T"
Si      -1.35715248       1.35736099       1.35726341       0.00000000
Si       1.35798327      -1.35790509       1.35705804       0.00000000
Si      -1.35791811      -1.35863269      -1.35736610       0.00000000
Si       1.35923760       1.35762163      -1.35746878       0.00000000
Si       0.00001629       2.71179304       2.71421877       0.00000000
Si       2.71261080       0.00036653       2.71445837       0.00000000
Si      -2.71495656       2.71498588      -0.00017114       0.00000000
Si      -2.71490769      -2.71511361       0.00030806       0.00000000
Si       2.71528236      -2.71499958       0.00037651       0.00000000
Si       2.71533123       2.71503475      -0.00006846       0.00000000
