10
Lattice="16.28999089631971 0.0 0.0 0.0 16.28999089631971 0.0 0.0 0.0 34.2284985734139" Properties=species:S:1:pos:R:3:initial_magmoms:R:1 pbc="T T T"
Si      -1.74995325      -0.39224691       1.49742919       0.00000000
Si      -1.17348273       0.68220891      -1.96423772       0.00000000
Si       0.87307884      -2.27833243       0.21848063       0.00000000
Si       2.69723304       0.86506416       1.30119710       0.00000000
Si      -0.37882395      -0.33528078       3.41987389       0.00000000
Si       1.90296522      -0.71939898       2.93174100       0.00000000
Si       1.62979821       2.96609949       1.56677617       0.00000000
Si       0.50283972       1.72905318      -3.28901827       0.00000000
Si      -3.39708402       1.22183145       1.05827731       0.00000000
Si       2.04211440      -2.89235140      -1.77303722       0.00000000
