10
Lattice="16.28999089631971 0.0 0.0 0.0 16.28999089631971 0.0 0.0 0.0 34.2284985734139" Properties=species:S:1:pos:R:3:initial_magmoms:R:1 pbc="T T T"
Si      -1.87395273      -0.74818408      -1.14487546       0.00000000
Si      -1.32559875       0.21280604       1.91121774       0.00000000
Si       0.83212578       1.97257891      -1.14374592       0.00000000
Si       1.63520649      -1.84469656       0.16854122       0.00000000
Si      -0.49037787      -2.04392326      -2.49563545       0.00000000
Si      -1.46292345      -2.11810792       2.22211537       0.00000000
Si       2.25082188       0.69383020      -2.49101460       0.00000000
Si       3.47710050      -0.78973987      -1.06087868       0.00000000
Si       0.71967591      -3.55715023      -1.08148425       0.00000000
Si       1.11514824      -2.68058533       2.48991929       0.00000000
