10
Lattice="16.28999089631971 0.0 0.0 0.0 16.28999089631971 0.0 0.0 0.0 34.2284985734139" Properties=species:S:1:pos:R:3:initial_magmoms:R:1 pbc="T T T"
Si       1.74995325       0.39224691      -1.49742919       0.00000000
Si      -1.33059978      -1.92651567       0.13650333       0.00000000
Si      -1.64713077       1.61407836      -0.43915188       0.00000000
Si       1.37112930       0.05696613       1.92244470       0.00000000
Si       0.54117009      -3.21924528      -0.32513669       0.00000000
Si       2.62303209      -1.88608552      -1.27894856       0.00000000
Si      -3.11709150       1.11433374       1.42140765       0.00000000
Si       0.72195651       2.12136525       2.87440823       0.00000000
Si       0.57647052       1.07445582      -3.46166691       0.00000000
Si       0.61126596      -1.57791456       3.43534518       0.00000000
