10
Lattice="16.28999089631971 0.0 0.0 0.0 16.28999089631971 0.0 0.0 0.0 34.2284985734139" Properties=species:S:1:pos:R:3:initial_magmoms:R:1 pbc="T T T"
Si      -1.35620766       1.35677781       1.36054935       0.00000000
Si       1.37816658       1.34042265      -1.35614414       0.00000000
Si       1.36023129      -1.35754344       1.36041244       0.00000000
Si      -1.36467846      -1.35674523      -1.38813754       0.00000000
Si      -2.71287144       2.71287144       0.00147183       0.00000000
Si      -2.71184517      -2.71502824      -0.00222485       0.00000000
Si      -2.71396287      -0.00017919       2.71771008       0.00000000
Si       2.71800279       2.71376739       0.00407319       0.00000000
Si       0.00107514       2.71484253       2.71774431       0.00000000
Si       0.00099369      -2.71516507       2.71788122       0.00000000
