10
Lattice="16.28999089631971 0.0 0.0 0.0 16.28999089631971 0.0 0.0 0.0 34.2284985734139" Properties=species:S:1:pos:R:3:initial_magmoms:R:1 pbc="T T T"
Si      -1.13795491      -1.39905036      -1.65570186       0.00000000
Si      -1.10811612       1.56416580       1.63554126       0.00000000
Si       0.18540952      -1.93469814       1.62428008       0.00000000
Si       1.63404013       1.21995810      -1.54161821       0.00000000
Si      -1.71165613      -3.46730695      -0.34430466       0.00000000
Si      -3.51287401       1.38666996       1.22866687       0.00000000
Si       2.12410849      -3.18224824       1.17455158       0.00000000
Si       3.07037830       0.80832609       2.47865811       0.00000000
Si      -2.47702549       0.01827738      -3.19016631       0.00000000
Si       3.59318956       2.10843099      -0.35245105       0.00000000
