10
Lattice="16.28999089631971 0.0 0.0 0.0 16.28999089631971 0.0 0.0 0.0 34.2284985734139" Properties=species:S:1:pos:R:3:initial_magmoms:R:1 pbc="T T T"
Si      -1.16952426       1.50553809       1.39778998       0.00000000
Si       0.31073175      -2.06479008       1.16606291       0.00000000
Si      -1.49270157      -0.37996425      -1.84741579       0.00000000
Si       2.34634644       0.62706726      -0.39441521       0.00000000
Si       2.99551923      -1.43733186      -1.34637874       0.00000000
Si      -0.02274084       0.11978037      -3.70797532       0.00000000
Si      -3.31071770       0.60128019       1.68424844       0.00000000
Si       1.16509338      -1.46233701       3.28367862       0.00000000
Si       2.23565589      -3.07221255       0.16652174       0.00000000
Si      -1.71791082       3.41513334       0.19527369       0.00000000
