10
Lattice="16.28999089631971 0.0 0.0 0.0 16.28999089631971 0.0 0.0 0.0 34.2284985734139" Properties=species:S:1:pos:R:3:initial_magmoms:R:1 pbc="T T T"
Si       1.34667801       0.87948081      -1.71967496       0.00000000
Si      -1.02179025       1.42221474       1.61465746       0.00000000
Si      -1.98472473      -0.56039229      -1.25019661       0.00000000
Si       1.45619568      -1.54489473       1.14881174       0.00000000
Si      -0.65710602      -0.01725111      -3.10788095       0.00000000
Si       2.19709746      -2.65492791      -0.95090245       0.00000000
Si      -1.95411582       3.07134918       0.26927575       0.00000000
Si       2.98211256       2.10618297      -0.03744600       0.00000000
Si      -2.57243535       0.00513135       2.67961172       0.00000000
Si      -3.19098294       1.60751349      -1.28124187       0.00000000
