10
Lattice="16.28999089631971 0.0 0.0 0.0 16.28999089631971 0.0 0.0 0.0 34.2284985734139" Properties=species:S:1:pos:R:3:initial_magmoms:R:1 pbc="T T T"
Si       0.93232557      -1.64913444       1.34538171       0.00000000
Si      -1.79281224       0.89215443       1.20953947       0.00000000
Si      -1.23686712      -1.46383569      -1.55051762       0.00000000
Si       1.90347021       1.58671116      -0.54375423       0.00000000
Si       0.43743537       1.51651755      -3.04031386       0.00000000
Si       2.34059607      -0.29224260       2.59731267       0.00000000
Si      -1.21508739       2.80826568      -1.72381661       0.00000000
Si      -0.49700790       2.36669265       2.54692145       0.00000000
Si       1.95411582      -3.07134918      -0.26927575       0.00000000
Si      -3.10825906       2.04602400      -0.42409133       0.00000000
