10
Lattice="16.28999089631971 0.0 0.0 0.0 16.28999089631971 0.0 0.0 0.0 34.2284985734139" Properties=species:S:1:pos:R:3:initial_magmoms:R:1 pbc="T T T"
Si      -1.40848227       1.28769192      -1.27675794       0.00000000
Si       1.32439329       1.38126168       1.36764834       0.00000000
Si      -1.39716072      -1.33594290       1.36552618       0.00000000
Si       1.37399634      -1.34208423      -1.66445067       0.00000000
Si      -2.43398664      -0.18995769      -2.87430695       0.00000000
Si       2.65769721      -2.68496667      -0.01273301       0.00000000
Si       2.67325416       2.71044423      -0.00289573       0.00000000
Si       2.67550218       0.02516805       2.72371376       0.00000000
Si      -0.03863988      -2.69122203       2.72429564       0.00000000
Si      -2.74225860      -2.68693776       0.00463796       0.00000000
