10
Lattice="16.28999089631971 0.0 0.0 0.0 16.28999089631971 0.0 0.0 0.0 34.2284985734139" Properties=species:S:1:pos:R:3:initial_magmoms:R:1 pbc="T T T"
Si      -2.18004413       0.07714944       0.88052862       0.00000000
Si       0.23421925       1.90185750      -1.37413807       0.00000000
Si       0.02723036      -2.16652765      -1.04331945       0.00000000
Si       1.36877214       0.42411015       1.96584646       0.00000000
Si      -1.32713231      -1.16986635       2.82751516       0.00000000
Si       1.03394748      -1.75161483       2.81426873       0.00000000
Si      -2.09906654       2.37912192       1.47665248       0.00000000
Si      -0.90979880       3.57107751      -0.17155333       0.00000000
Si      -1.09198616       1.71649359      -3.29110621       0.00000000
Si       2.21013435      -2.45114327      -2.05884534       0.00000000
