10
Lattice="16.28999089631971 0.0 0.0 0.0 16.28999089631971 0.0 0.0 0.0 34.2284985734139" Properties=species:S:1:pos:R:3:initial_magmoms:R:1 pbc="T T T"
Si      -0.85885767      -1.84306689      -1.21778220       0.00000000
Si       0.64184229      -0.88925481       2.12240770       0.00000000
Si       1.85531697       0.97744887      -1.16301657       0.00000000
Si      -1.68192621       1.75938516       0.30624255       0.00000000
Si      -2.11348089      -0.36471681      -2.59356324       0.00000000
Si       0.61820550       2.36496591      -2.59691764       0.00000000
Si      -3.53945862       0.84522294      -1.06926466       0.00000000
Si      -3.33966177       0.55389258       1.75677867       0.00000000
Si       2.85718455      -1.90421955       1.68270816       0.00000000
Si      -0.89031366       3.53488113      -1.19255579       0.00000000
