10
Lattice="16.28999089631971 0.0 0.0 0.0 16.28999089631971 0.0 0.0 0.0 34.2284985734139" Properties=species:S:1:pos:R:3:initial_magmoms:R:1 pbc="T T T"
Si       1.35698958       1.35648092      -1.35767415       0.00000000
Si       1.35770634      -1.35769005       1.35664730       0.00000000
Si      -1.35767376       1.35743243       1.35712650       0.00000000
Si      -1.35695700      -1.35931905      -1.35774261       0.00000000
Si       0.00052128      -2.71484253      -2.71052209       0.00000000
Si      -0.00174303       2.71461514       2.71367111       0.00000000
Si       2.71456560      -2.71502172       0.00027383       0.00000000
Si      -2.71476923      -2.71497285      -0.00027383       0.00000000
Si      -2.71530842      -0.00061902       2.71462951       0.00000000
Si       2.71490769       2.71511361      -0.00030806       0.00000000
