10
Lattice="16.28999089631971 0.0 0.0 0.0 16.28999089631971 0.0 0.0 0.0 34.2284985734139" Properties=species:S:1:pos:R:3:initial_magmoms:R:1 pbc="T T T"
Si       1.23711147      -1.38751704       1.43390106       0.00000000
Si      -1.35195597      -1.36179513      -1.36215809       0.00000000
Si       1.36112724       1.35418770      -1.36582054       0.00000000
Si      -1.50851916       1.16991522       1.40436185       0.00000000
Si      -0.61820550      -2.36496591       2.59691764       0.00000000
Si      -2.30013171      -0.60558075       2.90316019       0.00000000
Si      -2.71857294       2.68314219      -0.00978936       0.00000000
Si       2.71028133       2.70031185       0.00811216       0.00000000
Si       2.69917155      -2.71199178       0.00075303       0.00000000
Si       0.00379557       2.70845685      -2.72421350       0.00000000
