10
Lattice="16.28999089631971 0.0 0.0 0.0 16.28999089631971 0.0 0.0 0.0 34.2284985734139" Properties=species:S:1:pos:R:3:initial_magmoms:R:1 pbc="T T T"
Si      -1.66801455       0.53841708       1.43410643       0.00000000
Si      -0.24171102      -1.35567009      -1.84077545       0.00000000
Si       1.10152980       1.99143621      -0.41515769       0.00000000
Si       1.90161315      -0.36022077       1.28497278       0.00000000
Si       1.78355952      -2.64279186       0.94012047       0.00000000
Si      -3.05479854       1.71395235       0.05452603       0.00000000
Si       3.37838310       1.25203311       0.04302525       0.00000000
Si       1.85585454      -0.90909603      -2.98780731       0.00000000
Si      -0.61271577       1.70193033       3.16076401       0.00000000
Si       1.07333181       0.08373060       3.49069269       0.00000000
