10
Lattice="16.28999089631971 0.0 0.0 0.0 16.28999089631971 0.0 0.0 0.0 34.2284985734139" Properties=species:S:1:pos:R:3:initial_magmoms:R:1 pbc="T T T"
Si      -1.68604758       1.61819973      -0.32992868       0.00000000
Si       0.82828134      -0.44395137      -2.20571991       0.00000000
Si      -1.27526265      -0.56412270       1.96102024       0.00000000
Si       1.85137479       0.24974199       1.61493569       0.00000000
Si      -2.13965892      -2.31774120       0.63623969       0.00000000
Si      -2.74134636       0.45468648      -2.05658626       0.00000000
Si       2.90157480       1.89871353       0.35056848       0.00000000
Si      -1.07333181      -0.08373060      -3.49069269       0.00000000
Si      -0.48713616      -3.60948933      -0.68025756       0.00000000
Si       0.16972551      -1.69194456       3.38691183       0.00000000
