10
Lattice="16.28999089631971 0.0 0.0 0.0 16.28999089631971 0.0 0.0 0.0 34.2284985734139" Properties=species:S:1:pos:R:3:initial_magmoms:R:1 pbc="T T T"
Si       1.14344397       1.90810634       0.50750623       0.00000000
Si      -0.87996951      -0.79184224       1.98682854       0.00000000
Si       1.33898913      -1.58421620      -1.02504142       0.00000000
Si      -1.75702311       0.57180506      -1.51327700       0.00000000
Si      -0.63628740       3.12096200       1.41127601       0.00000000
Si       0.51660477      -1.67907287      -3.17986352       0.00000000
Si      -1.75982499      -1.29528047      -2.93841556       0.00000000
Si      -2.49965163      -2.36261756       1.27716868       0.00000000
Si       2.07862029       2.67516986      -1.50420644       0.00000000
Si       0.35352558      -3.71652833      -0.94884874       0.00000000
