10
Lattice="16.28999089631971 0.0 0.0 0.0 16.28999089631971 0.0 0.0 0.0 34.2284985734139" Properties=species:S:1:pos:R:3:initial_magmoms:R:1 pbc="T T T"
Si       1.89895788      -1.41243097      -0.09019214       0.00000000
Si       0.17141967       1.46676789      -1.85645211       0.00000000
Si      -1.79789472      -1.45975993      -0.56894642       0.00000000
Si      -1.43461143      -0.97041159       2.36679931       0.00000000
Si      -3.20357511       0.27795627      -1.32255570       0.00000000
Si      -2.28503088       2.56399713       1.59802681       0.00000000
Si      -2.05162776       2.01676716      -2.46452173       0.00000000
Si       1.61471367       3.26146977      -1.25420135       0.00000000
Si       3.47014467      -0.65246337       1.53583359       0.00000000
Si      -0.11925909      -2.99076974       2.49926368       0.00000000
