10
Lattice="16.28999089631971 0.0 0.0 0.0 16.28999089631971 0.0 0.0 0.0 34.2284985734139" Properties=species:S:1:pos:R:3:initial_magmoms:R:1 pbc="T T T"
Si      -1.32854724       1.38453597       1.35003093       0.00000000
Si       1.41305976      -1.33529130       1.35776999       0.00000000
Si      -1.16879121      -1.64108718      -1.33526358       0.00000000
Si       1.10429910       1.74996954      -1.28186997       0.00000000
Si       2.49694749       0.20484675      -2.50108947       0.00000000
Si      -2.61224811       2.72741841      -0.30168673       0.00000000
Si      -2.66499513       0.02068830       2.73017268       0.00000000
Si       0.05041755      -2.69459406       2.72459343       0.00000000
Si       0.04823469       2.73592179       2.72630486       0.00000000
Si      -2.57829975      -0.51968358      -2.84512030       0.00000000
