10
Lattice="16.28999089631971 0.0 0.0 0.0 16.28999089631971 0.0 0.0 0.0 34.2284985734139" Properties=species:S:1:pos:R:3:initial_magmoms:R:1 pbc="T T T"
Si      -1.88362899      -0.79992045       1.35498520       0.00000000
Si      -0.15548805       0.86952762      -2.31206791       0.00000000
Si       0.77463837       1.87167213       1.55434578       0.00000000
Si       1.83291822      -1.77736932       0.37480197       0.00000000
Si       0.77750541       3.06962244      -1.96173904       0.00000000
Si      -0.59992812      -2.14280289       3.00670286       0.00000000
Si       2.14703829       0.57954933       3.01892244       0.00000000
Si      -0.20445579      -3.00627063      -2.47550909       0.00000000
Si      -3.16286640      -2.33510634      -0.01146655       0.00000000
Si       3.53942604      -0.69918309       1.60902926       0.00000000
