10
Lattice="16.28999089631971 0.0 0.0 0.0 16.28999089631971 0.0 0.0 0.0 34.2284985734139" Properties=species:S:1:pos:R:3:initial_magmoms:R:1 pbc="T T T"
Si       1.48740732      -1.17634977      -1.41753983       0.00000000
Si       1.85740209       0.90999198       1.21343518       0.00000000
Si      -1.22403060       1.54391733      -1.40566254       0.00000000
Si      -1.29707496      -1.40274819       1.49657348       0.00000000
Si      -2.69720046      -2.54391156       0.02012637       0.00000000
Si       0.14410134      -2.51726112      -2.78260735       0.00000000
Si      -2.57318469       0.19779318      -2.77959524       0.00000000
Si       2.78759367      -2.58391980      -0.01061084       0.00000000
Si      -2.68540650       2.78093106       0.01119273       0.00000000
Si       3.64695633      -0.75621438       1.20597336       0.00000000
