10
Lattice="16.28999089631971 0.0 0.0 0.0 16.28999089631971 0.0 0.0 0.0 34.2284985734139" Properties=species:S:1:pos:R:3:initial_magmoms:R:1 pbc="T T T"
Si       0.23387553      -1.41543810       1.87028044       0.00000000
Si       1.62427590       1.63518273       0.54666366       0.00000000
Si       0.45204750      -1.19206962      -2.04214182       0.00000000
Si      -2.26452177       0.70897338       0.41029724       0.00000000
Si      -3.20214159      -1.55818737       0.68183207       0.00000000
Si       0.69165711       0.08579943       3.67491057       0.00000000
Si       1.05301818       2.26919767       2.81238616       0.00000000
Si      -1.91552481      -2.10013938       2.61495607       0.00000000
Si       1.87128117       3.17295710      -1.22644202       0.00000000
Si       0.72554031       0.32785254      -3.86131908       0.00000000
