10
Lattice="16.28999089631971 0.0 0.0 0.0 16.28999089631971 0.0 0.0 0.0 34.2284985734139" Properties=species:S:1:pos:R:3:initial_magmoms:R:1 pbc="T T T"
Si       1.35749457      -1.35738706      -1.36349300       0.00000000
Si      -1.35842310       1.35832536      -1.36308226       0.00000000
Si       1.34328969       1.35819504       1.39388793       0.00000000
Si      -1.34452773      -1.36404478       1.38889056       0.00000000
Si       2.71093349      -2.71332163      -0.00561348       0.00000000
Si      -2.71243161      -2.71581226       0.00051343       0.00000000
Si      -2.71249677       2.71630863      -0.00335439       0.00000000
Si       2.72096757       2.71381626      -0.00236177       0.00000000
Si      -0.00019548      -2.71446153      -2.72037990       0.00000000
Si      -2.71538010       0.00068418      -2.72061950       0.00000000
