10
Lattice="16.28999089631971 0.0 0.0 0.0 16.28999089631971 0.0 0.0 0.0 34.2284985734139" Properties=species:S:1:pos:R:3:initial_magmoms:R:1 pbc="T T T"
Si      -1.33859817      -1.34804637      -1.37988846       0.00000000
Si       1.33429761      -1.43335710       1.33224237       0.00000000
Si       1.37687967       1.36686132      -1.37468573       0.00000000
Si      -1.31349528       1.20907638       1.67103623       0.00000000
Si       2.34644418       0.25782183       2.66879753       0.00000000
Si       0.64565415       2.09754927       2.86020340       0.00000000
Si      -2.69175634      -2.69481398       0.00130068       0.00000000
Si      -2.69131977       2.70673011       0.02012637       0.00000000
Si      -2.69758490       0.00496845      -2.73533776       0.00000000
Si       0.01739772      -2.70799096      -2.73540622       0.00000000
