10
Lattice="16.28999089631971 0.0 0.0 0.0 16.28999089631971 0.0 0.0 0.0 34.2284985734139" Properties=species:S:1:pos:R:3:initial_magmoms:R:1 pbc="T T T"
Si       0.03806973       1.60103333       1.71293194       0.00000000
Si      -1.37849238      -1.75518627       0.72167407       0.00000000
Si       2.17621368      -0.79633991      -0.53930452       0.00000000
Si      -3.49795170      -0.64374496       0.80005737       0.00000000
Si      -0.87667893       3.53086076       0.70527861       0.00000000
Si       2.17763091       1.45970129       2.65079332       0.00000000
Si       2.22317775      -0.85766198      -2.91596165       0.00000000
Si       2.73854448      -2.80955652       0.77945181       0.00000000
Si      -1.55818737      -3.61677489      -0.70346450       0.00000000
Si      -0.54659466      -2.97418326       2.62881862       0.00000000
