10
Lattice="16.28999089631971 0.0 0.0 0.0 16.28999089631971 0.0 0.0 0.0 34.2284985734139" Properties=species:S:1:pos:R:3:initial_magmoms:R:1 pbc="T T T"
Si       1.35843878       1.35747828      -1.35688690       0.00000000
Si      -1.35778779       1.35769005       1.35781107       0.00000000
Si       1.35803100      -1.35786924       1.35753724       0.00000000
Si      -1.35772263      -1.35871632      -1.35716073       0.00000000
Si       2.71308062      -0.00244350       2.71438991       0.00000000
Si       2.71471288      -2.71468615       0.00044497       0.00000000
Si      -2.71482624       2.71492398       0.00054766       0.00000000
Si      -0.00065160       2.71510317       2.71473220       0.00000000
Si       2.71516248       2.71487511      -0.00006846       0.00000000
Si       0.00030951      -2.71559839       2.71483488       0.00000000
