10
Lattice="16.28999089631971 0.0 0.0 0.0 16.28999089631971 0.0 0.0 0.0 34.2284985734139" Properties=species:S:1:pos:R:3:initial_magmoms:R:1 pbc="T T T"
Si       1.35556162      -1.35659862      -1.36191849       0.00000000
Si      -1.36127385      -1.35319401       1.36400643       0.00000000
Si      -1.36155078       1.35806472      -1.36243192       0.00000000
Si       1.36277972       1.34726445       1.37756092       0.00000000
Si       2.71212929      -2.70946683      -0.00513428       0.00000000
Si      -2.71847520      -2.71150308      -0.00701685       0.00000000
Si       2.71410038       2.71700910      -0.00523696       0.00000000
Si       2.71294379       0.00171045      -2.71993493       0.00000000
Si      -0.00251658      -2.71311579      -2.72010607       0.00000000
Si      -2.71663443       2.71795392      -0.00167720       0.00000000
