10
Lattice="16.28999089631971 0.0 0.0 0.0 16.28999089631971 0.0 0.0 0.0 34.2284985734139" Properties=species:S:1:pos:R:3:initial_magmoms:R:1 pbc="T T T"
Si      -1.89574223       1.32820515      -0.30412038       0.00000000
Si      -1.30382879      -1.95458823      -0.27126100       0.00000000
Si       1.49270157       0.37996425       1.84741579       0.00000000
Si       1.46996073       0.49974462      -1.86055954       0.00000000
Si      -0.95721669       3.42088371      -0.09385460       0.00000000
Si       3.11709150      -1.11433374      -1.42140765       0.00000000
Si      -3.14422154       0.79588053       1.61469609       0.00000000
Si       0.16128729      -3.65089851       0.42813030       0.00000000
Si       1.78649172      -3.04084941      -1.28490433       0.00000000
Si      -3.35762054      -1.45852515       0.88323267       0.00000000
