10
Lattice="16.28999089631971 0.0 0.0 0.0 16.28999089631971 0.0 0.0 0.0 34.2284985734139" Properties=species:S:1:pos:R:3:initial_magmoms:R:1 pbc="T T T"
Si       0.80676944      -0.15477129      -2.19035130       0.00000000
Si      -1.85601744      -1.45769436       0.06048179       0.00000000
Si       1.53890394      -1.21541319       1.34028607       0.00000000
Si       0.11748348       2.29715064       0.73498896       0.00000000
Si       3.08295485       0.07032393      -1.50930649       0.00000000
Si      -3.46367754       0.16149906       0.51832244       0.00000000
Si       2.57206787       0.56539332       2.56412672       0.00000000
Si       0.15110915      -2.31184422      -2.88590901       0.00000000
Si       2.42957924       2.54409075       1.30900120       0.00000000
Si      -0.71329023       2.44069812       2.88570364       0.00000000
