10
Lattice="16.28999089631971 0.0 0.0 0.0 16.28999089631971 0.0 0.0 0.0 34.2284985734139" Properties=species:S:1:pos:R:3:initial_magmoms:R:1 pbc="T T T"
Si       1.35504962       1.35542574       1.35685267       0.00000000
Si       1.35668188      -1.35681691      -1.35709227       0.00000000
Si      -1.35772149      -1.35772915       1.35729764       0.00000000
Si      -1.35803100       1.35786924      -1.35753724       0.00000000
Si       2.71403636       0.00241092       2.71230197       0.00000000
Si       2.71341734       0.00115659      -2.71452682       0.00000000
Si      -0.00102511      -2.71443362      -2.71428723       0.00000000
Si       2.71410152      -2.71471638       0.00023960       0.00000000
Si      -0.00428257      -2.71366372       2.71517717       0.00000000
Si       2.71416668       2.71507059       0.00061611       0.00000000
