10
Lattice="16.28999089631971 0.0 0.0 0.0 16.28999089631971 0.0 0.0 0.0 34.2284985734139" Properties=species:S:1:pos:R:3:initial_magmoms:R:1 pbc="T T T"
Si       1.23686712       1.46383569       1.55051762       0.00000000
Si       1.20625821      -2.16790578       0.03104527       0.00000000
Si      -0.20618253       1.00481607      -2.28492470       0.00000000
Si      -1.91929432      -1.32445845       1.03952008       0.00000000
Si       2.53387692      -1.62476460      -1.82663908       0.00000000
Si      -2.01784719      -0.58411053      -2.83795486       0.00000000
Si      -2.65533353      -2.13491853      -1.12361955       0.00000000
Si       2.16919269      -0.18529875       2.89589933       0.00000000
Si      -0.55594512       2.35599012       2.76005709       0.00000000
Si       1.61008731      -0.08708634      -3.35928941       0.00000000
