10
Lattice="16.28999089631971 0.0 0.0 0.0 16.28999089631971 0.0 0.0 0.0 34.2284985734139" Properties=species:S:1:pos:R:3:initial_magmoms:R:1 pbc="T T T"
Si       1.35656767      -1.35286821       1.35678421       0.00000000
Si      -1.35807820      -1.35651717      -1.35818758       0.00000000
Si       1.35738217       1.35830907      -1.35801644       0.00000000
Si      -1.35556162       1.35659862       1.36191849       0.00000000
Si       2.69407441      -0.00923643       2.72743098       0.00000000
Si       2.71290565      -2.71489140      -0.00065034       0.00000000
Si       2.71269388       2.71564074       0.00017114       0.00000000
Si      -2.71592323      -2.71402803      -0.00106108       0.00000000
Si      -0.00010914      -2.71425609      -2.71586174       0.00000000
Si       2.71518625       0.00096111      -2.71545099       0.00000000
