10
Lattice="16.28999089631971 0.0 0.0 0.0 16.28999089631971 0.0 0.0 0.0 34.2284985734139" Properties=species:S:1:pos:R:3:initial_magmoms:R:1 pbc="T T T"
Si       1.35713862       1.35659862       1.35743456       0.00000000
Si      -1.35781535       1.35773892      -1.35733187       0.00000000
Si       1.35767782      -1.35775521      -1.35746878       0.00000000
Si      -1.35920000      -1.35896067       1.35743456       0.00000000
Si      -0.00064493      -2.71450044      -2.71480065       0.00000000
Si      -2.71473977       2.71456282       0.00010269       0.00000000
Si       2.71477328       2.71465007      -0.00006846       0.00000000
Si      -0.00035334       2.71493282      -2.71459528       0.00000000
Si      -2.71456058       0.00014661      -2.71572482       0.00000000
Si       2.71549004      -0.00210141      -2.71493757       0.00000000
