10
Lattice="16.28999089631971 0.0 0.0 0.0 16.28999089631971 0.0 0.0 0.0 34.2284985734139" Properties=species:S:1:pos:R:3:initial_magmoms:R:1 pbc="T T T"
Si       0.79069379       1.63717758       1.48493578       0.00000000
Si      -1.51128587       1.35940050      -1.24454890       0.00000000
Si      -1.07619626      -2.05156260       0.68850663       0.00000000
Si       1.77407222      -0.51590430      -1.56612583       0.00000000
Si       0.25506230      -3.35942154      -0.75316430       0.00000000
Si       1.63158359       1.46279313      -2.82125134       0.00000000
Si       2.17747778       0.46164231       2.86451619       0.00000000
Si      -0.67999088       3.52649178      -0.53345145       0.00000000
Si      -0.68051216       1.21585302      -3.39526358       0.00000000
Si      -3.35107847      -1.48136373       0.26106090       0.00000000
