10
Lattice="16.28999089631971 0.0 0.0 0.0 16.28999089631971 0.0 0.0 0.0 34.2284985734139" Properties=species:S:1:pos:R:3:initial_magmoms:R:1 pbc="T T T"
Si       0.98187975      -0.81682947       2.00195754       0.00000000
Si      -1.88177568      -1.49336946       0.43607132       0.00000000
Si      -1.27594846       1.61919342      -1.32169998       0.00000000
Si       1.89236043      -0.21185145      -1.55921167       0.00000000
Si       2.30314536      -2.39417388       0.73173725       0.00000000
Si       0.83706165      -1.37536470      -3.28586924       0.00000000
Si      -3.15339281       2.06933499       0.04658501       0.00000000
Si      -2.02648319      -2.82165606      -1.47011484       0.00000000
Si      -3.80355929      -0.30362931      -0.38175066       0.00000000
Si       1.76656905       3.49955531      -0.63295375       0.00000000
