10
Lattice="16.28999089631971 0.0 0.0 0.0 16.28999089631971 0.0 0.0 0.0 34.474598006748145" Properties=species:S:1:pos:R:3:initial_magmoms:R:1 pbc="T T T"
Si      -1.68729377       1.75528008       0.16894221       0.00000000
Si      -0.98877694      -1.76862159       1.36832311       0.00000000
Si       1.82596239       0.90266148       1.37266691       0.00000000
Si       0.92743857      -0.51750072      -2.38354056       0.00000000
Si      -2.22396686      -0.38384127       2.88247933       0.00000000
Si       0.51064263       2.36061653       2.86260126       0.00000000
Si       1.48903632      -2.83848363      -1.95588294       0.00000000
Si      -3.44747618       0.89818173      -1.41218375       0.00000000
Si       3.52984752       1.72832013      -0.17330390       0.00000000
Si      -3.49066097       1.05445170       1.58074536       0.00000000
