10
Lattice="16.28999089631971 0.0 0.0 0.0 16.28999089631971 0.0 0.0 0.0 34.474598006748145" Properties=species:S:1:pos:R:3:initial_magmoms:R:1 pbc="T T T"
Si       1.36407573       1.35180284      -1.38177713       0.00000000
Si      -1.35783666      -1.36057079      -1.38008788       0.00000000
Si       1.23434217      -1.37866898       1.53939509       0.00000000
Si      -1.30329774       1.56701003       1.35412849       0.00000000
Si       2.71059084       2.69828537       0.00268902       0.00000000
Si      -2.71163340      -2.70733025      -0.00620543       0.00000000
Si       2.72181465      -2.70768863       0.00410248       0.00000000
Si       0.00335574       2.71030739      -2.74093892       0.00000000
Si      -2.71202436      -0.00471758      -2.74173184       0.00000000
Si       0.00417024      -2.71803278      -2.73955994       0.00000000
