10
Lattice="16.28999089631971 0.0 0.0 0.0 16.28999089631971 0.0 0.0 0.0 34.474598006748145" Properties=species:S:1:pos:R:3:initial_magmoms:R:1 pbc="T T T"
Si       0.90940554      -0.82060875      -2.04944705       0.00000000
Si       1.82514789       0.91126260       1.29010020       0.00000000
Si      -1.03482225      -1.81730263       1.28217794       0.00000000
Si      -1.74330693       1.95550047       0.10036737       0.00000000
Si      -1.78224003      -0.62222913      -2.82840102       0.00000000
Si      -2.21348520      -0.40905819       2.77358435       0.00000000
Si       0.53067933       2.32306803       2.75674350       0.00000000
Si       2.91620322       2.15531361      -0.43031217       0.00000000
Si      -3.45649365       1.05782373       1.45202748       0.00000000
Si      -0.74474622       3.80439918       1.36449298       0.00000000
