10
Lattice="16.28999089631971 0.0 0.0 0.0 16.28999089631971 0.0 0.0 0.0 34.474598006748145" Properties=species:S:1:pos:R:3:initial_magmoms:R:1 pbc="T T T"
Si      -1.71318672      -0.89767674       1.35166011       0.00000000
Si      -1.29971394       1.22833116      -1.57339882       0.00000000
Si       0.99856071       1.84889871       1.26412561       0.00000000
Si       1.74330693      -1.95550047      -0.10036737       0.00000000
Si       0.63741141       1.48455657      -3.01588575       0.00000000
Si       2.27398626       0.36756756       2.65637613       0.00000000
Si      -0.47017827      -2.36455866       2.67321698       0.00000000
Si      -3.20425929      -2.02312026      -0.05348189       0.00000000
Si       2.88432369       1.78520481      -1.86639859       0.00000000
Si      -0.03893310      -2.57772960      -2.92876840       0.00000000
