10
Lattice="16.28999089631971 0.0 0.0 0.0 16.28999089631971 0.0 0.0 0.0 34.474598006748145" Properties=species:S:1:pos:R:3:initial_magmoms:R:1 pbc="T T T"
Si      -1.35656604      -1.35759231       1.35795517       0.00000000
Si       1.35861858       1.35716877       1.35809307       0.00000000
Si      -1.35920502       1.35742941      -1.35905836       0.00000000
Si       1.35974259      -1.35755973      -1.36054077       0.00000000
Si      -2.71388142      -0.00016290       2.71525533       0.00000000
Si      -2.71292031      -2.71658556       0.00055159       0.00000000
Si      -2.71394658       2.71581993       0.00048264       0.00000000
Si       2.71572219       2.71415835       0.00041370       0.00000000
Si       0.00014661      -2.71443528       2.71546218       0.00000000
Si       0.00076563       2.71511946       2.71546218       0.00000000
