10
Lattice="16.28999089631971 0.0 0.0 0.0 16.28999089631971 0.0 0.0 0.0 34.474598006748145" Properties=species:S:1:pos:R:3:initial_magmoms:R:1 pbc="T T T"
Si       1.44116001       0.16109181       1.82649970       0.00000000
Si      -2.23604685      -0.24364953       0.74830604       0.00000000
Si       0.11306889       2.06983998      -1.16572471       0.00000000
Si       0.61825437      -1.60674786      -1.85528600       0.00000000
Si      -1.89411975       1.28132253      -2.47538094       0.00000000
Si       3.47516199       0.49586760       0.65608644       0.00000000
Si      -3.39768675       1.12029588      -0.69187109       0.00000000
Si       1.89219753       1.79348013      -2.67367894       0.00000000
Si       2.68990254      -0.53480070      -2.55701684       0.00000000
Si       0.93020787       2.22454611       2.90862346       0.00000000
