10
Lattice="16.28999089631971 0.0 0.0 0.0 16.28999089631971 0.0 0.0 0.0 34.474598006748145" Properties=species:S:1:pos:R:3:initial_magmoms:R:1 pbc="T T T"
Si       1.35845568       1.35713619       1.36607739       0.00000000
Si      -1.35861858      -1.35889551       1.36600844       0.00000000
Si       1.45557666      -1.22945517      -1.39988320       0.00000000
Si      -1.31921307       1.29893202      -1.50374144       0.00000000
Si      -2.72142369      -2.69430084      -0.01033204       0.00000000
Si      -2.71635750       2.70581787      -0.02522852       0.00000000
Si       2.72238480       2.70948312      -0.01118357       0.00000000
Si      -2.71336014      -0.00050499       2.72554945       0.00000000
Si       0.00131949       2.71381626       2.72589420       0.00000000
Si       0.00058644      -2.71632492       2.72506681       0.00000000
