10
Lattice="16.28999089631971 0.0 0.0 0.0 16.28999089631971 0.0 0.0 0.0 34.474598006748145" Properties=species:S:1:pos:R:3:initial_magmoms:R:1 pbc="T T T"
Si      -1.35713619       1.35668007       1.35981680       0.00000000
Si       1.35785295      -1.35930276       1.35940311       0.00000000
Si      -1.35845568      -1.35713619      -1.36607739       0.00000000
Si       1.36392912       1.35234693      -1.37726096       0.00000000
Si       0.09712098      -2.58659136      -2.76596060       0.00000000
Si       2.71319724       2.71723716      -0.00013790       0.00000000
Si       0.00042354       2.71394658       2.71666879       0.00000000
Si      -2.71393029       2.71718829      -0.00158583       0.00000000
Si      -2.71476108      -0.00058644       2.71680669       0.00000000
Si       2.71500543      -0.00073305       2.71697906       0.00000000
