10
Lattice="16.28999089631971 0.0 0.0 0.0 16.28999089631971 0.0 0.0 0.0 34.474598006748145" Properties=species:S:1:pos:R:3:initial_magmoms:R:1 pbc="T T T"
Si       1.35632169       1.35739683      -1.35605907       0.00000000
Si       1.35312885      -1.35881406       1.35919626       0.00000000
Si      -1.35713619       1.35544203       1.35954101       0.00000000
Si      -1.35870003      -1.35733167      -1.35671409       0.00000000
Si      -0.00224802      -2.68348428       2.72477033       0.00000000
Si       0.01948284       2.69948106       2.72614931       0.00000000
Si       2.71340901       0.00027693      -2.71418662       0.00000000
Si      -2.71399545      -2.71464705       0.00024132       0.00000000
Si      -0.00084708      -2.71528236      -2.71408319       0.00000000
Si      -0.00117288       2.71495656      -2.71449689       0.00000000
