10
Lattice="16.28999089631971 0.0 0.0 0.0 16.28999089631971 0.0 0.0 0.0 34.474598006748145" Properties=species:S:1:pos:R:3:initial_magmoms:R:1 pbc="T T T"
Si      -1.77912864       0.27635985       1.50795423       0.00000000
Si      -1.03793364       1.27601199      -1.73076369       0.00000000
Si       0.79770501      -2.32828083       0.11666210       0.00000000
Si       1.87085763       0.90707607       2.33437976       0.00000000
Si       2.08810107      -1.87571205      -1.91141068       0.00000000
Si      -1.27394316      -3.40022799       0.81839294       0.00000000
Si      -1.89219753      -1.79348013       2.67367894       0.00000000
Si      -3.78631728      -0.51215760       0.19829800       0.00000000
Si      -2.87055864       2.49605154      -0.65336295       0.00000000
Si       1.58296446      -1.29761253       3.32976538       0.00000000
