10
Lattice="16.28999089631971 0.0 0.0 0.0 16.28999089631971 0.0 0.0 0.0 34.474598006748145" Properties=species:S:1:pos:R:3:initial_magmoms:R:1 pbc="T T T"
Si      -0.73324548       0.91284273       2.02610773       0.00000000
Si      -0.52385382       1.50773724      -1.73683122       0.00000000
Si      -1.27092951      -2.03721111      -0.15685951       0.00000000
Si       2.40332886      -0.20432547      -0.19336813       0.00000000
Si      -0.76292586      -2.67252111      -2.35368555       0.00000000
Si       3.10677993      -0.20779524       2.07547538       0.00000000
Si      -0.68949054      -0.81642222       3.61356043       0.00000000
Si      -2.44405386       0.71881254      -2.77896442       0.00000000
Si       1.34382726       1.68998976      -3.09557931       0.00000000
Si       0.71425134       2.72350881       2.64037646       0.00000000
