10
Lattice="16.28999089631971 0.0 0.0 0.0 16.28999089631971 0.0 0.0 0.0 34.474598006748145" Properties=species:S:1:pos:R:3:initial_magmoms:R:1 pbc="T T T"
Si       2.26370727      -0.69786360       0.21291524       0.00000000
Si      -1.44749682      -1.81066608      -0.61426873       0.00000000
Si      -0.36038367       0.95314419       2.20844398       0.00000000
Si      -0.54815850       1.64327004      -1.72469615       0.00000000
Si       3.25039257       1.19448054      -0.76930108       0.00000000
Si      -2.57342904       0.21774843       2.52609311       0.00000000
Si       2.06444799       2.98473525       0.30816860       0.00000000
Si       2.54420478      -0.78884325       2.56380834       0.00000000
Si       0.24356808       3.22361181       1.85969875       0.00000000
Si      -3.60561231      -0.84944205      -0.77840238       0.00000000
