10
Lattice="16.28999089631971 0.0 0.0 0.0 16.28999089631971 0.0 0.0 0.0 34.474598006748145" Properties=species:S:1:pos:R:3:initial_magmoms:R:1 pbc="T T T"
Si       0.98668530       1.89234414      -0.98221632       0.00000000
Si       0.12882132      -2.23344045      -0.77781631       0.00000000
Si       0.28049751      -0.09097965       2.35089310       0.00000000
Si      -2.26370727       0.69786360      -0.21291524       0.00000000
Si      -1.30963455      -3.15481914       0.91088834       0.00000000
Si       2.59758711      -0.09159867       2.48231034       0.00000000
Si       3.32293194      -1.43809749       0.64274476       0.00000000
Si      -2.62409094       1.65100779       1.99552875       0.00000000
Si      -0.19925928       3.68259885       0.09525337       0.00000000
Si      -0.42795459      -2.27478447       2.91469099       0.00000000
