10
Lattice="16.28999089631971 0.0 0.0 0.0 16.28999089631971 0.0 0.0 0.0 34.474598006748145" Properties=species:S:1:pos:R:3:initial_magmoms:R:1 pbc="T T T"
Si       2.15178031       0.75162060      -0.53635610       0.00000000
Si      -1.15343530       2.06280270       0.04916080       0.00000000
Si       0.09435168      -0.61082613       2.29780219       0.00000000
Si      -1.62252214      -1.33622960      -1.11694313       0.00000000
Si      -3.35284594      -0.64544238       0.42262433       0.00000000
Si      -1.02573799       1.27513233       3.16301166       0.00000000
Si       3.24884665      -1.28252799      -0.94467346       0.00000000
Si      -2.92671583       1.49209884       1.72211056       0.00000000
Si       1.92539818       1.66607604      -2.72177103       0.00000000
Si       1.54717696      -2.69811989      -2.06271978       0.00000000
