10
Lattice="16.28999089631971 0.0 0.0 0.0 16.28999089631971 0.0 0.0 0.0 34.474598006748145" Properties=species:S:1:pos:R:3:initial_magmoms:R:1 pbc="T T T"
Si       1.94774643      -0.42849216      -1.32396320       0.00000000
Si      -1.12252761      -1.60537950       1.39060406       0.00000000
Si       1.51853751       1.18021050       1.49508283       0.00000000
Si      -1.51739721       0.04333140      -1.93581871       0.00000000
Si       0.50283972      -0.38410191      -3.21455121       0.00000000
Si       2.78831043      -2.60770320      -0.04998820       0.00000000
Si      -2.51967204      -0.19849365       2.86911697       0.00000000
Si      -2.18235501      -3.12989544      -0.27927887       0.00000000
Si       0.19060929       2.51747289       2.89772056       0.00000000
Si       2.98108629       1.73587869      -1.79381776       0.00000000
