10
Lattice="16.28999089631971 0.0 0.0 0.0 16.28999089631971 0.0 0.0 0.0 34.474598006748145" Properties=species:S:1:pos:R:3:initial_magmoms:R:1 pbc="T T T"
Si      -1.09706634       2.03414859       0.40831737       0.00000000
Si       0.99044829      -0.68870862       2.01904044       0.00000000
Si       1.99151766       0.17624151      -1.28183522       0.00000000
Si      -1.70166969      -1.41559190      -1.11804631       0.00000000
Si       2.43802656      -2.17426607      -1.54173936       0.00000000
Si      -3.24884665       1.28252799       0.94467346       0.00000000
Si      -1.32344847       2.94860403      -1.77709757       0.00000000
Si      -0.53682066      -2.41692191       2.74469665       0.00000000
Si      -1.94556357      -0.13277979      -3.15160056       0.00000000
Si       1.11182508       1.03115700       3.59404780       0.00000000
