10
Lattice="16.28999089631971 0.0 0.0 0.0 16.28999089631971 0.0 0.0 0.0 34.474598006748145" Properties=species:S:1:pos:R:3:initial_magmoms:R:1 pbc="T T T"
Si      -1.24100478      -1.17840231      -1.56959485       0.00000000
Si       1.30637655       1.52423901      -1.30996651       0.00000000
Si       1.74013038      -1.69867233       0.52104937       0.00000000
Si      -2.02786065       0.80570340       1.57486947       0.00000000
Si      -2.74383873      -2.33994447      -0.27769304       0.00000000
Si       1.50472359      -1.91725155       2.86904660       0.00000000
Si       0.09615987      -2.54739762      -2.86446147       0.00000000
Si      -0.85768479      -2.41566039       2.86377198       0.00000000
Si       2.56194459       2.87020256       0.35139977       0.00000000
Si      -2.63959902       0.19557774      -2.85556702       0.00000000
