10
Lattice="16.28999089631971 0.0 0.0 0.0 16.28999089631971 0.0 0.0 0.0 34.474598006748145" Properties=species:S:1:pos:R:3:initial_magmoms:R:1 pbc="T T T"
Si      -1.30637655      -1.52423901       1.30996651       0.00000000
Si      -1.23434217       1.37866898      -1.53939509       0.00000000
Si       1.25556804       1.34596355       1.66136628       0.00000000
Si       1.48747248      -1.32901965      -1.53529261       0.00000000
Si      -2.54738133      -2.70264132      -0.25962834       0.00000000
Si       0.43375383      -3.22291134       1.83101587       0.00000000
Si       2.63339253       2.81273633       0.22332657       0.00000000
Si      -2.53763991       2.94567902      -0.18526659       0.00000000
Si      -2.59217883       0.01809819      -2.91948296       0.00000000
Si       0.12883761      -2.70334179      -2.91951744       0.00000000
