10
Lattice="16.28999089631971 0.0 0.0 0.0 16.28999089631971 0.0 0.0 0.0 34.474598006748145" Properties=species:S:1:pos:R:3:initial_magmoms:R:1 pbc="T T T"
Si      -1.41592680      -1.00235628      -1.54911693       0.00000000
Si       2.12911929      -0.50238360      -0.87144938       0.00000000
Si      -0.01304829      -1.08704799       2.10167609       0.00000000
Si      -0.44650890       2.35050758       0.25990414       0.00000000
Si      -3.33285255      -1.34188875      -0.28944889       0.00000000
Si      -2.43802656       2.17426607       1.54173936       0.00000000
Si       0.78156162       0.60217614       3.49186503       0.00000000
Si       1.64191797      -2.70365130       2.04255212       0.00000000
Si       3.17990574       1.66614350      -1.33420216       0.00000000
Si       3.37225806      -1.67733243       0.78902057       0.00000000
