10
Lattice="16.28999089631971 0.0 0.0 0.0 16.28999089631971 0.0 0.0 0.0 34.474598006748145" Properties=species:S:1:pos:R:3:initial_magmoms:R:1 pbc="T T T"
Si      -1.12008967       1.88595846       0.86520947       0.00000000
Si      -0.09435168       0.61082613      -2.29780219       0.00000000
Si      -1.22323795      -1.95021485       0.64377900       0.00000000
Si       2.06280433      -0.18551052       1.20468103       0.00000000
Si       1.30872394       0.74601684       3.22296302       0.00000000
Si       0.29810700      -3.57056342      -0.27100497       0.00000000
Si      -1.24778698       2.67362883      -2.24864139       0.00000000
Si      -3.02106751       2.10292497      -0.57569163       0.00000000
Si      -0.90714679       1.65063312       3.22437648       0.00000000
Si       2.05742863       1.36244673      -2.83415829       0.00000000
