10
Lattice="16.28999089631971 0.0 0.0 0.0 16.28999089631971 0.0 0.0 0.0 34.474598006748145" Properties=species:S:1:pos:R:3:initial_magmoms:R:1 pbc="T T T"
Si      -1.36115982      -1.35036444       1.37686795       0.00000000
Si       1.35917244       1.36661697       1.37817798       0.00000000
Si       1.41234300      -1.37548362      -1.37764363       0.00000000
Si      -1.40568039       1.31408172      -1.46355437       0.00000000
Si       2.67665877       0.08716779      -2.72242058       0.00000000
Si      -2.72072322      -2.68800785      -0.00617440       0.00000000
Si       2.68868079       2.72717406       0.01256945       0.00000000
Si      -2.70014895       2.72588715       0.00308893       0.00000000
Si       2.73010626      -2.70602054       0.02388746       0.00000000
Si       0.00109143      -2.70825742       2.73606421       0.00000000
