10
Lattice="16.28999089631971 0.0 0.0 0.0 16.28999089631971 0.0 0.0 0.0 34.474598006748145" Properties=species:S:1:pos:R:3:initial_magmoms:R:1 pbc="T T T"
Si      -0.19036494       2.02439088       1.17234383       0.00000000
Si       2.14156485      -0.25718652      -0.94729353       0.00000000
Si      -0.39332205      -2.10719132       1.13686945       0.00000000
Si      -2.29671081       0.37142829      -0.93919200       0.00000000
Si      -0.63649917       0.46938006      -2.52612758       0.00000000
Si      -2.44980423       2.21710158       0.49164252       0.00000000
Si       1.65716541      -2.21719932      -2.17876134       0.00000000
Si       0.10961541       1.37046141       3.36703245       0.00000000
Si       1.09843470      -3.48342821      -0.19160992       0.00000000
Si       3.75412824      -0.63275247       0.79350227       0.00000000
