10
Lattice="16.28999089631971 0.0 0.0 0.0 16.28999089631971 0.0 0.0 0.0 34.474598006748145" Properties=species:S:1:pos:R:3:initial_magmoms:R:1 pbc="T T T"
Si       0.92708019       1.77818382      -1.36119579       0.00000000
Si      -1.29039606      -0.45256878       2.02807278       0.00000000
Si       1.66591314      -1.78914699       0.17475183       0.00000000
Si      -1.80664245      -0.95693976      -1.37815730       0.00000000
Si      -2.08810107       1.87571205       1.91141068       0.00000000
Si       2.21690610       0.31659615      -2.76651909       0.00000000
Si      -0.49280508      -2.42633034      -2.73435427       0.00000000
Si       3.41832618      -1.01599101      -1.29303947       0.00000000
Si       0.66433878      -3.69054837      -0.97432163       0.00000000
Si       2.64241719       2.90199834      -0.11293885       0.00000000
