10
Lattice="16.28999089631971 0.0 0.0 0.0 16.28999089631971 0.0 0.0 0.0 34.474598006748145" Properties=species:S:1:pos:R:3:initial_magmoms:R:1 pbc="T T T"
Si       0.93890673       0.52290900       2.08206004       0.00000000
Si       1.80906966      -1.14302043      -1.09325906       0.00000000
Si      -1.91936925       1.12430322       0.92257523       0.00000000
Si      -2.20726242      -1.08038538       1.91796086       0.00000000
Si       1.48740732       2.46063708      -1.52150276       0.00000000
Si       0.70437960      -3.22398648      -0.58668904       0.00000000
Si      -1.52156745      -2.96148942       0.57024464       0.00000000
Si       3.54125052      -0.12742038       0.07656812       0.00000000
Si      -0.81837702      -0.07638381       3.50668912       0.00000000
Si       0.94029138       1.24351344      -3.43615405       0.00000000
