10
Lattice="16.28999089631971 0.0 0.0 0.0 16.28999089631971 0.0 0.0 0.0 34.474598006748145" Properties=species:S:1:pos:R:3:initial_magmoms:R:1 pbc="T T T"
Si      -1.38888540      -1.00400157      -1.58872826       0.00000000
Si       1.75728375       0.59929281      -1.42462908       0.00000000
Si       0.17109387      -1.39962051       1.90062012       0.00000000
Si      -0.67960251       2.26325115       0.23308289       0.00000000
Si      -1.10099223       1.20068703      -2.58411389       0.00000000
Si       0.81837702       0.07638381      -3.50668912       0.00000000
Si       2.04475338       2.88895005      -0.93002175       0.00000000
Si      -3.42288738      -1.33877736      -0.41831501       0.00000000
Si       0.18845901       2.86391232       2.37550798       0.00000000
Si      -1.20754512      -0.36572679       3.55919396       0.00000000
