10
Lattice="16.28999089631971 0.0 0.0 0.0 16.28999089631971 0.0 0.0 0.0 34.474598006748145" Properties=species:S:1:pos:R:3:initial_magmoms:R:1 pbc="T T T"
Si      -0.75976560       0.28520532       2.16031742       0.00000000
Si      -0.59921136       2.28793050      -0.55600663       0.00000000
Si      -1.86344731      -1.54078802      -0.46882032       0.00000000
Si       2.40556059      -0.26940402      -0.71496909       0.00000000
Si       1.45687986      -2.02423124      -2.02831411       0.00000000
Si      -0.84584196      -1.77165967      -2.59200857       0.00000000
Si      -2.83807312       1.88235837       0.40338750       0.00000000
Si       1.14477975       3.53665674       0.64040049       0.00000000
Si       0.73130697       1.41064884       3.56545942       0.00000000
Si       2.44449369       2.30832558       2.21379931       0.00000000
