10
Lattice="16.28999089631971 0.0 0.0 0.0 16.28999089631971 0.0 0.0 0.0 34.474598006748145" Properties=species:S:1:pos:R:3:initial_magmoms:R:1 pbc="T T T"
Si       1.09996596      -1.57481946      -1.36491905       0.00000000
Si      -2.37096063       0.22968900       0.07467202       0.00000000
Si       0.71317620       1.86074154      -1.43931527       0.00000000
Si      -0.52458687      -1.85816772       2.08126712       0.00000000
Si      -0.29297565       2.70314631       2.36468295       0.00000000
Si      -2.53988793       2.40249807       1.21519578       0.00000000
Si       3.29540184      -0.54812592      -1.83236038       0.00000000
Si      -3.15446076       0.04062726      -2.14101163       0.00000000
Si       2.82193299      -0.66920949       2.47682888       0.00000000
Si      -3.21623244      -1.65978810       1.30231314       0.00000000
