10
Lattice="16.28999089631971 0.0 0.0 0.0 16.28999089631971 0.0 0.0 0.0 34.474598006748145" Properties=species:S:1:pos:R:3:initial_magmoms:R:1 pbc="T T T"
Si       1.28912544       1.49762115      -1.33736490       0.00000000
Si       1.31857776      -1.39559688       1.43194805       0.00000000
Si      -1.53406188      -1.08805797      -1.48512311       0.00000000
Si      -1.40330205       1.32481683       1.44802701       0.00000000
Si      -2.67011019      -2.61412146       0.05932737       0.00000000
Si      -2.37462588       1.09115307      -2.75909812       0.00000000
Si       2.66289372      -0.02712285       2.82366766       0.00000000
Si      -2.80383480       2.69985573       0.05994791       0.00000000
Si       2.57570964      -2.91558420      -0.18898296       0.00000000
Si      -0.05403393       2.68970706       2.82515007       0.00000000
