10
Lattice="16.28999089631971 0.0 0.0 0.0 16.28999089631971 0.0 0.0 0.0 34.474598006748145" Properties=species:S:1:pos:R:3:initial_magmoms:R:1 pbc="T T T"
Si      -1.33999911      -1.48498011       1.27280287       0.00000000
Si      -1.39323483       1.07836542      -1.65998730       0.00000000
Si       0.25073568       1.92709071       1.72552354       0.00000000
Si       1.28940237      -1.59557292      -1.64516321       0.00000000
Si      -2.73039948       2.44736073      -0.36512067       0.00000000
Si      -2.63516814      -2.84662863      -0.15427391       0.00000000
Si      -0.05418054       2.44666026      -3.02500977       0.00000000
Si       2.71311579      -2.85852033      -0.26903991       0.00000000
Si      -3.17262411      -0.26494056       2.35020361       0.00000000
Si       2.65355955      -0.26441928      -3.02176915       0.00000000
