10
Lattice="16.28999089631971 0.0 0.0 0.0 16.28999089631971 0.0 0.0 0.0 34.474598006748145" Properties=species:S:1:pos:R:3:initial_magmoms:R:1 pbc="T T T"
Si       1.91936925      -1.12430322      -0.92257523       0.00000000
Si      -0.28789317      -2.20468860       0.99538562       0.00000000
Si       0.80752788       2.36182194       0.03657757       0.00000000
Si       0.42138972       1.06256412       2.81719677       0.00000000
Si       1.10099223      -1.20068703       2.58411389       0.00000000
Si      -2.02158900       1.42182378       1.89875850       0.00000000
Si      -1.87085763      -0.90707607      -2.33437976       0.00000000
Si       2.85827598      -0.60139422       1.15948480       0.00000000
Si      -3.64998627      -0.63071622      -0.82642553       0.00000000
Si       3.14574561       1.68826302       1.65409214       0.00000000
