10
Lattice="16.28999089631971 0.0 0.0 0.0 16.28999089631971 0.0 0.0 0.0 34.474598006748145" Properties=species:S:1:pos:R:3:initial_magmoms:R:1 pbc="T T T"
Si      -0.83349414      -0.05194881      -2.19186169       0.00000000
Si       1.27612602       1.76653647       1.03230794       0.00000000
Si      -1.39893633      -1.49947821       1.42642176       0.00000000
Si       2.27240613      -0.70776792      -0.94425977       0.00000000
Si       1.34760654       2.72688084      -1.28118020       0.00000000
Si      -0.39278448      -2.34188298      -2.37757645       0.00000000
Si      -2.14865100       0.09027918       3.01249548       0.00000000
Si       2.96603433       1.27571877      -2.20279015       0.00000000
Si       1.96942842      -2.43455679      -2.53922794       0.00000000
Si      -3.64584861      -1.80012645       0.27693460       0.00000000
