10
Lattice="16.28999089631971 0.0 0.0 0.0 16.28999089631971 0.0 0.0 0.0 34.474598006748145" Properties=species:S:1:pos:R:3:initial_magmoms:R:1 pbc="T T T"
Si      -0.60158970       0.90942183       2.12794575       0.00000000
Si      -1.27612602      -1.76653647      -1.03230794       0.00000000
Si       0.07148052       0.96034437      -2.31348814       0.00000000
Si      -0.90046233       2.36074680       0.10893979       0.00000000
Si       2.99082771       0.85248828       0.64022812       0.00000000
Si       0.99628011      -2.47430439      -1.97656771       0.00000000
Si       0.86003055       3.06546849      -1.58752165       0.00000000
Si       1.68990831      -0.49081770      -3.23509808       0.00000000
Si       2.78508501      -2.45099340      -0.36625833       0.00000000
Si      -1.89071514      -0.58819932       3.46531066       0.00000000
