10
Lattice="16.28999089631971 0.0 0.0 0.0 16.28999089631971 0.0 0.0 0.0 34.474598006748145" Properties=species:S:1:pos:R:3:initial_magmoms:R:1 pbc="T T T"
Si      -1.73780484      -1.16186796      -1.03751602       0.00000000
Si      -1.43969784       1.24150977       1.53888831       0.00000000
Si       1.25390972      -1.45270962       1.53917445       0.00000000
Si       1.59629294       1.01600730      -1.62411788       0.00000000
Si       2.65612034       2.54052324       0.04576505       0.00000000
Si      -2.93692803       2.38744611       0.10338938       0.00000000
Si      -0.85021745      -2.26272987      -2.92491413       0.00000000
Si       2.71916264      -2.73443940       0.23715779       0.00000000
Si      -3.63976008       0.48088080      -1.32960122       0.00000000
Si      -0.09873532       2.60006319       2.91585968       0.00000000
