10
Lattice="16.28999089631971 0.0 0.0 0.0 16.28999089631971 0.0 0.0 0.0 34.474598006748145" Properties=species:S:1:pos:R:3:initial_magmoms:R:1 pbc="T T T"
Si      -1.34796492       1.34949685      -1.35929968       0.00000000
Si       1.36601424      -1.36555812      -1.35505931       0.00000000
Si      -1.34596125      -1.35314514       1.38784467       0.00000000
Si       1.34653140       1.36105786       1.39639437       0.00000000
Si       0.51179922      -2.25328167       2.66492239       0.00000000
Si       2.29154688      -0.39910500       2.70446478       0.00000000
Si      -2.70370017       2.70634634       0.00196505       0.00000000
Si      -2.70609480      -0.00708088      -2.71491058       0.00000000
Si       0.00721647       2.70720971      -2.71425557       0.00000000
Si      -2.70459612      -2.72746728       0.00361983       0.00000000
