10
Lattice="16.28999089631971 0.0 0.0 0.0 16.28999089631971 0.0 0.0 0.0 34.474598006748145" Properties=species:S:1:pos:R:3:initial_magmoms:R:1 pbc="T T T"
Si       0.23540679       0.21857922      -2.34799723       0.00000000
Si      -2.36240838      -0.49840884      -0.00527462       0.00000000
Si       0.38462319       2.11120029       1.35154290       0.00000000
Si       2.36099115      -1.20060558       1.30100311       0.00000000
Si       2.60473842       0.97467957      -2.15980030       0.00000000
Si       1.62776196       0.93625146       3.01201284       0.00000000
Si      -2.33888562      -2.14412238       1.61013700       0.00000000
Si      -3.16042290       1.61122761       0.67387534       0.00000000
Si      -1.50472359       1.91725155      -2.86904660       0.00000000
Si      -0.46812573      -2.14060374       3.16318403       0.00000000
