10
Lattice="16.28999089631971 0.0 0.0 0.0 16.28999089631971 0.0 0.0 0.0 34.474598006748145" Properties=species:S:1:pos:R:3:initial_magmoms:R:1 pbc="T T T"
Si       1.14647391      -1.94810481      -0.64736436       0.00000000
Si      -1.20902751       1.25266842      -1.62751221       0.00000000
Si      -0.37242198       1.60306632       1.89324256       0.00000000
Si      -1.45277478      -0.92261673       1.83329120       0.00000000
Si       1.98821079       1.73094282       0.38566754       0.00000000
Si      -0.95314419       3.55462461      -1.01817335       0.00000000
Si      -3.81376593       0.27798885       0.53228809       0.00000000
Si       0.88544295      -1.59617565       3.45080577       0.00000000
Si       3.23651349      -2.19362769       0.42948478       0.00000000
Si      -3.57835914       0.49656807      -1.81570914       0.00000000
