10
Lattice="16.28999089631971 0.0 0.0 0.0 16.28999089631971 0.0 0.0 0.0 34.474598006748145" Properties=species:S:1:pos:R:3:initial_magmoms:R:1 pbc="T T T"
Si      -0.13300785      -0.04250061       2.32596795       0.00000000
Si       0.22252140      -2.24093385      -0.68535539       0.00000000
Si      -2.33846208      -0.25785441      -0.33261111       0.00000000
Si       1.68210540       1.38934152      -1.05481986       0.00000000
Si      -1.70347788       1.72908576       2.25760479       0.00000000
Si       0.22968900       2.23252821      -2.76248556       0.00000000
Si       3.40472403      -0.23755707      -1.04447748       0.00000000
Si      -0.76543452       3.50486585       0.93967464       0.00000000
Si       2.38501890      -2.32797132      -1.62837407       0.00000000
Si      -0.00221544      -3.58829604       1.29234998       0.00000000
