10
Lattice="16.28999089631971 0.0 0.0 0.0 16.28999089631971 0.0 0.0 0.0 34.474598006748145" Properties=species:S:1:pos:R:3:initial_magmoms:R:1 pbc="T T T"
Si      -2.00391435       0.99633617      -0.71152163       0.00000000
Si       0.71109108      -0.71127027      -2.15459463       0.00000000
Si       2.01906405       1.14479182       0.65177711       0.00000000
Si      -1.18780164      -1.61026650       1.37419272       0.00000000
Si      -2.93071761      -0.66907917      -2.11581069       0.00000000
Si       1.74035844       3.25103507      -0.36391406       0.00000000
Si       0.59429178       2.91823037      -2.47310562       0.00000000
Si      -3.52452069       1.41123921       0.98997311       0.00000000
Si      -1.10983770      -0.90795573      -3.66734084       0.00000000
Si      -1.99179459      -3.42599877       0.01410012       0.00000000
