10
Lattice="16.28999089631971 0.0 0.0 0.0 16.28999089631971 0.0 0.0 0.0 34.474598006748145" Properties=species:S:1:pos:R:3:initial_magmoms:R:1 pbc="T T T"
Si      -2.26970199      -0.95366125       0.30479009       0.00000000
Si       1.58806064      -1.82929762      -0.56155704       0.00000000
Si       0.37093959       1.73453802      -1.81484728       0.00000000
Si       0.61598259       1.50344808       2.07009734       0.00000000
Si       2.15536967       2.86423323      -0.48443732       0.00000000
Si      -2.73978252      -1.21969324      -2.04510325       0.00000000
Si       3.14330930      -0.70327481      -1.93102674       0.00000000
Si       1.75584276       0.53256408      -3.37933988       0.00000000
Si       2.49548858       0.36886587       2.96571343       0.00000000
Si      -2.58548364      -0.69956232       2.85363644       0.00000000
