10
Lattice="16.28999089631971 0.0 0.0 0.0 16.28999089631971 0.0 0.0 0.0 34.474598006748145" Properties=species:S:1:pos:R:3:initial_magmoms:R:1 pbc="T T T"
Si       1.40633199      -0.86745064      -1.65653983       0.00000000
Si      -2.20372749      -0.66469227      -0.55090438       0.00000000
Si       0.07677477       2.39688291      -0.26841937       0.00000000
Si       0.07903908      -1.03394275       2.19779133       0.00000000
Si       0.08293239       2.54852652       2.09026499       0.00000000
Si      -3.25857015       1.18902828       0.44851477       0.00000000
Si      -2.11250349       1.52183298       2.55770633       0.00000000
Si       1.44708957       0.91364583      -3.26795240       0.00000000
Si      -2.19742326       2.91685971      -0.69442222       0.00000000
Si       0.24381243      -2.78021660      -2.54539889       0.00000000
