10
Lattice="16.28999089631971 0.0 0.0 0.0 16.28999089631971 0.0 0.0 0.0 34.474598006748145" Properties=species:S:1:pos:R:3:initial_magmoms:R:1 pbc="T T T"
Si       0.39519540      -0.89233362      -2.09336771       0.00000000
Si       1.28606292       1.93995981      -0.28889729       0.00000000
Si       1.51907508      -1.17428094       1.43169638       0.00000000
Si      -2.10834954      -0.23483664       1.28928174       0.00000000
Si      -0.45678789      -0.91883745       2.97440103       0.00000000
Si       2.89984221       0.92634714       1.23312259       0.00000000
Si      -1.63488069      -0.11375307      -3.01990752       0.00000000
Si       1.44751311      -3.21695246       0.22949753       0.00000000
Si       0.45167283      -3.20105342      -1.93433630       0.00000000
Si       0.23688918       3.95254044       0.41676365       0.00000000
