10
Lattice="16.28999089631971 0.0 0.0 0.0 16.28999089631971 0.0 0.0 0.0 34.474598006748145" Properties=species:S:1:pos:R:3:initial_magmoms:R:1 pbc="T T T"
Si      -0.37271520      -1.95806193       1.19158067       0.00000000
Si       0.07156197       2.04267152       1.20219885       0.00000000
Si      -0.99584028       0.01589904      -2.16383383       0.00000000
Si       2.42695492       0.72015321       0.13141724       0.00000000
Si       1.38746721      -1.10096358       2.77270663       0.00000000
Si      -1.05231771       2.32461884      -2.32286524       0.00000000
Si      -1.44751311       3.21695246      -0.22949753       0.00000000
Si      -0.92084112      -3.82492851      -0.11452468       0.00000000
Si       0.39420171      -1.11010227      -3.78624379       0.00000000
Si       3.44456027       0.48928155      -1.99177101       0.00000000
