10
Lattice="16.28999089631971 0.0 0.0 0.0 16.28999089631971 0.0 0.0 0.0 34.474598006748145" Properties=species:S:1:pos:R:3:initial_magmoms:R:1 pbc="T T T"
Si       1.10469006       2.08096605      -0.50657003       0.00000000
Si      -2.22594705       0.26249706       1.15693368       0.00000000
Si       0.93623517      -1.21720509       2.08257715       0.00000000
Si      -0.74059227      -0.22364541      -2.56177433       0.00000000
Si      -0.70437960       3.22398648       0.58668904       0.00000000
Si       2.60749143       0.19471437       2.90714105       0.00000000
Si      -3.69690147       1.11293280      -0.70845338       0.00000000
Si      -2.40650541       1.56550158      -2.73652617       0.00000000
Si      -3.06206388      -1.85220558       2.05723831       0.00000000
Si       1.77645708       2.55353895      -2.73169972       0.00000000
