10
Lattice="16.28999089631971 0.0 0.0 0.0 16.28999089631971 0.0 0.0 0.0 34.474598006748145" Properties=species:S:1:pos:R:3:initial_magmoms:R:1 pbc="T T T"
Si       0.12658959       0.28258263      -2.41167185       0.00000000
Si      -1.97350092      -0.77020749       1.23091418       0.00000000
Si       0.70283205       1.90656531       1.43299060       0.00000000
Si       1.90195524      -1.64274876       0.29208520       0.00000000
Si      -0.55506546      -1.94878899       2.88095555       0.00000000
Si       2.20006224       0.76062897       2.86848953       0.00000000
Si       0.78006294      -3.29598828       1.54662928       0.00000000
Si       1.17576333      -1.72999800      -3.11733279       0.00000000
Si       1.78738767       2.02487958      -2.70998071       0.00000000
Si       0.33233229       3.58606431      -1.40518540       0.00000000
