10
Lattice="16.28999089631971 0.0 0.0 0.0 16.28999089631971 0.0 0.0 0.0 34.474598006748145" Properties=species:S:1:pos:R:3:initial_magmoms:R:1 pbc="T T T"
Si       1.54918130      -1.21088457       1.30279579       0.00000000
Si      -2.13210036      -0.49827852       0.88148149       0.00000000
Si       0.67668660       2.26450548      -0.46882032       0.00000000
Si       0.21897018      -1.09573056      -2.13983949       0.00000000
Si       2.55763656      -0.61281351      -1.95870985       0.00000000
Si       2.54375259       0.49226751       2.50561518       0.00000000
Si       2.75159344       1.76147028      -1.57517974       0.00000000
Si      -2.41956999      -2.78793576       0.38687416       0.00000000
Si      -1.02933252       2.82883995      -2.18365673       0.00000000
Si       3.33191492      -1.73941362      -0.11028430       0.00000000
