10
Lattice="16.28999089631971 0.0 0.0 0.0 16.28999089631971 0.0 0.0 0.0 34.474598006748145" Properties=species:S:1:pos:R:3:initial_magmoms:R:1 pbc="T T T"
Si       0.69482293      -0.91776231       2.04062155       0.00000000
Si      -0.59323293       2.27489850       0.40714523       0.00000000
Si      -1.62416187      -1.23971787      -1.30241657       0.00000000
Si       2.08074518       0.77082651      -0.99049023       0.00000000
Si       1.79149668       2.61208521       0.44823897       0.00000000
Si      -2.81860983      -1.03443129       1.18823663       0.00000000
Si      -0.09694179      -1.73020977      -3.08165156       0.00000000
Si      -2.62975986       0.74463219      -2.27715189       0.00000000
Si      -0.04743648      -3.11771052       1.84259934       0.00000000
Si      -1.61005473       2.83504644      -1.69325530       0.00000000
