10
Lattice="16.28999089631971 0.0 0.0 0.0 16.28999089631971 0.0 0.0 0.0 34.474598006748145" Properties=species:S:1:pos:R:3:initial_magmoms:R:1 pbc="T T T"
Si       1.16163990      -1.36394541       1.44017714       0.00000000
Si      -1.84829761      -1.07888670      -0.89599530       0.00000000
Si      -0.51948810       2.02738824       1.01489826       0.00000000
Si       1.50356700       0.16102665      -1.78350985       0.00000000
Si       0.14465520       2.10085614      -2.36978519       0.00000000
Si      -1.29376646       3.15398835      -0.83352730       0.00000000
Si       0.10130751      -3.41084907       1.07578043       0.00000000
Si       3.39768675      -1.12029588       0.69187109       0.00000000
Si       3.51075564       0.94954410      -0.47385361       0.00000000
Si      -3.66862922       0.32853672      -0.49343520       0.00000000
