10
Lattice="16.28999089631971 0.0 0.0 0.0 16.28999089631971 0.0 0.0 0.0 34.474598006748145" Properties=species:S:1:pos:R:3:initial_magmoms:R:1 pbc="T T T"
Si       0.39892581      -2.27550123       0.20622716       0.00000000
Si      -2.19838437       0.51873876      -0.54466448       0.00000000
Si       0.10164960       0.56159775       2.31166099       0.00000000
Si       1.19444796      -0.20528658      -2.49065320       0.00000000
Si       2.81860983       1.03443129      -1.18823663       0.00000000
Si       0.23446197      -2.62127277      -2.12291246       0.00000000
Si       2.77117335      -2.08327923       0.65436271       0.00000000
Si       3.51343276       0.11666898       0.85238491       0.00000000
Si      -2.92372920       1.86523758       1.29490110       0.00000000
Si      -1.97364753       1.86610095      -2.52236985       0.00000000
