10
Lattice="16.28999089631971 0.0 0.0 0.0 16.28999089631971 0.0 0.0 0.0 34.474598006748145" Properties=species:S:1:pos:R:3:initial_magmoms:R:1 pbc="T T T"
Si       1.26669411      -1.43829297       1.30173397       0.00000000
Si      -1.43495352       1.30671864       1.30670176       0.00000000
Si       1.80336720       0.70082838      -1.41180315       0.00000000
Si      -1.89167625      -0.65655216      -1.47932104       0.00000000
Si       0.04318479      -0.15626997      -2.99292911       0.00000000
Si       2.62412582      -0.05326830       2.65695875       0.00000000
Si      -0.09291816       2.65940507       2.66330208       0.00000000
Si       2.50188403      -2.82307329      -0.21242225       0.00000000
Si      -2.72966643      -2.62798425      -0.17706853       0.00000000
Si      -2.75271678       2.63725556      -0.09482933       0.00000000
