10
Lattice="16.28999089631971 0.0 0.0 0.0 16.28999089631971 0.0 0.0 0.0 34.474598006748145" Properties=species:S:1:pos:R:3:initial_magmoms:R:1 pbc="T T T"
Si       1.33500201      -1.86486291      -0.41755656       0.00000000
Si       1.21102045       0.90774396       1.77599438       0.00000000
Si       0.11724159       1.58763969      -1.72311032       0.00000000
Si      -2.01494268      -0.87706989       0.90471738       0.00000000
Si      -0.53206398      -0.09262494      -3.39199207       0.00000000
Si      -0.99812088      -1.43721783       3.00511791       0.00000000
Si       1.38660873      -1.10003112       3.04621166       0.00000000
Si      -0.31032450       2.52809252       2.69077835       0.00000000
Si       1.67585723      -2.94128982       1.60748245       0.00000000
Si       3.44653136      -1.20313053      -1.18047984       0.00000000
