10
Lattice="16.28999089631971 0.0 0.0 0.0 16.28999089631971 0.0 0.0 0.0 34.474598006748145" Properties=species:S:1:pos:R:3:initial_magmoms:R:1 pbc="T T T"
Si       0.54812592       1.86686658       1.30610535       0.00000000
Si      -0.08404011      -1.99208781       1.30827725       0.00000000
Si       1.35000117      -0.51606720      -1.91047987       0.00000000
Si      -2.21483727       0.22089240      -0.91947252       0.00000000
Si      -1.38673512       1.36658439       2.81971342       0.00000000
Si       0.89787222      -2.81983158      -2.20444493       0.00000000
Si       0.24068475       0.57588408      -3.68606055       0.00000000
Si       1.37101527      -3.55327254       0.00348194       0.00000000
Si      -2.02351122       1.03827573      -3.15208321       0.00000000
Si      -3.00338730      -1.88423172      -1.64543901       0.00000000
