10
Lattice="16.28999089631971 0.0 0.0 0.0 16.28999089631971 0.0 0.0 0.0 34.474598006748145" Properties=species:S:1:pos:R:3:initial_magmoms:R:1 pbc="T T T"
Si      -1.35855346      -1.34925183       1.35430086       0.00000000
Si      -1.35601222       1.35715248      -1.35947206       0.00000000
Si       1.36078741      -1.35526284      -1.35747253       0.00000000
Si       1.36992936       1.36536264       1.35261161       0.00000000
Si      -2.54327629       0.13199787       2.77041472       0.00000000
Si      -2.70699079       2.70848943      -0.00434380       0.00000000
Si      -2.71166602      -0.00078192      -2.71587587       0.00000000
Si       2.71423066       2.71344159      -0.00072397       0.00000000
Si      -2.71350679      -2.71568961      -0.00206848       0.00000000
Si       0.00198211       2.71368594      -2.71556560       0.00000000
