10
Lattice="16.28999089631971 0.0 0.0 0.0 16.28999089631971 0.0 0.0 0.0 34.474598006748145" Properties=species:S:1:pos:R:3:initial_magmoms:R:1 pbc="T T T"
Si       0.99854442      -0.73542834      -2.10557172       0.00000000
Si       0.88102836      -1.17595881       2.00101021       0.00000000
Si       1.54598616       1.99726803       0.34447038       0.00000000
Si      -2.56763699       0.31379427      -0.41445385       0.00000000
Si      -2.32335215       1.60489080       2.41832545       0.00000000
Si       2.41737084      -2.80039761       0.93722695       0.00000000
Si       3.39380973      -0.60059601      -1.76513488       0.00000000
Si       0.54275022      -3.03220431      -2.40843124       0.00000000
Si       3.56622309       1.56983472      -0.93426213       0.00000000
Si       0.67337973      -4.04912385      -0.25918017       0.00000000
