10
Lattice="16.28999089631971 0.0 0.0 0.0 16.28999089631971 0.0 0.0 0.0 34.474598006748145" Properties=species:S:1:pos:R:3:initial_magmoms:R:1 pbc="T T T"
Si      -1.35799432      -1.35653346       1.35609355       0.00000000
Si       1.35763243      -1.35692442      -1.35681751       0.00000000
Si      -1.35709837       1.35775521      -1.35716226       0.00000000
Si       1.35771877       1.35694071       1.35754148       0.00000000
Si      -2.70897289      -0.00519651       2.71122180       0.00000000
Si       2.71224856      -0.00024435       2.71484164       0.00000000
Si       0.00046886      -2.71396287      -2.71363502       0.00000000
Si      -2.71364812      -2.71446786      -0.00031027       0.00000000
Si      -2.71511422       0.00001629      -2.71387635       0.00000000
Si      -0.00198211      -2.71368594       2.71556560       0.00000000
