10
Lattice="16.28999089631971 0.0 0.0 0.0 16.28999089631971 0.0 0.0 0.0 34.474598006748145" Properties=species:S:1:pos:R:3:initial_magmoms:R:1 pbc="T T T"
Si       1.50283395       1.16154216      -1.29190181       0.00000000
Si      -1.22855922      -1.50423489      -1.24280995       0.00000000
Si       1.06060932      -1.55075913       1.42342247       0.00000000
Si      -1.26583074       1.57351626       1.54601421       0.00000000
Si      -1.21406112      -2.61913878       1.68880808       0.00000000
Si       2.74383873       2.33994447       0.27769304       0.00000000
Si       0.10423971       2.53552221      -2.57787398       0.00000000
Si       1.88615394      -0.07571592       3.14146502       0.00000000
Si      -2.60029288      -0.18331137      -2.60204069       0.00000000
Si       0.71597808       3.14564787       1.85256251       0.00000000
