10
Lattice="16.28999089631971 0.0 0.0 0.0 16.28999089631971 0.0 0.0 0.0 34.474598006748145" Properties=species:S:1:pos:R:3:initial_magmoms:R:1 pbc="T T T"
Si       0.59683302      -2.10448881      -0.81084300       0.00000000
Si      -2.11152935      -0.66173238       0.76292328       0.00000000
Si       1.28677968       0.75455280       1.84166853       0.00000000
Si      -0.27394893       1.49358123      -1.84618470       0.00000000
Si       3.04585533       1.74842199       0.54494028       0.00000000
Si      -1.32336702      -2.89341351      -1.85297620       0.00000000
Si      -1.77067413      -1.73815929       2.78796230       0.00000000
Si       0.08405640       2.59281414       2.72970020       0.00000000
Si       2.46451410      -1.92223629      -2.16959109       0.00000000
Si      -3.44653136       1.20313053       1.18047984       0.00000000
