10
Lattice="10.86 0.0 0.0 0.0 10.86 0.0 0.0 0.0 10.86" Properties=species:S:1:pos:R:3:initial_magmoms:R:1 pbc="T T T"
Si       1.22574648      -1.30516566      -1.32951378       0.00000000
Si       1.22574648       1.40983434       1.38548622       0.00000000
Si      -1.48925352      -1.30516566       1.38548622       0.00000000
Si       2.63704692      -0.20631828      -2.53344252       0.00000000
Si       2.58324648      -2.66266566       0.02798622       0.00000000
Si       2.34366402       2.88808668      -0.06361788       0.00000000
Si       0.16515888       2.66841060      -2.62200582       0.00000000
Si       2.58324648       0.05233434       2.74298622       0.00000000
Si      -0.13175352      -2.66266566      -2.68701378       0.00000000
Si      -0.13175352      -2.66266566       2.74298622       0.00000000
