10
Lattice="10.86 0.0 0.0 0.0 10.86 0.0 0.0 0.0 10.86" Properties=species:S:1:pos:R:3:initial_magmoms:R:1 pbc="T T T"
Si       1.10546112       1.42689540      -1.34364264       0.00000000
Si      -1.26145416      -1.39151352      -1.32576708       0.00000000
Si      -1.63968624       1.32256338       1.13645556       0.00000000
Si       1.43673456      -1.44298992       1.28043744       0.00000000
Si       2.49732216       2.72843382      -0.14207052       0.00000000
Si      -0.21767784       2.72843382       2.57292948       0.00000000
Si       2.49732216       0.01343382      -2.85707052       0.00000000
Si      -2.93267784       0.01343382       2.57292948       0.00000000
Si      -0.21767784      -2.70156618      -2.85707052       0.00000000
Si      -0.21767784       2.72843382      -2.85707052       0.00000000
