10
Lattice="10.86 0.0 0.0 0.0 10.86 0.0 0.0 0.0 10.86" Properties=species:S:1:pos:R:3:initial_magmoms:R:1 pbc="T T T"
Si      -1.29299160       1.40587044      -1.27852608       0.00000000
Si      -1.29299160      -1.30912956       1.43647392       0.00000000
Si       1.63968624      -1.32256338      -1.13645556       0.00000000
Si       1.42200840       1.40587044       1.43647392       0.00000000
Si       0.37823208      -2.71407690      -2.46222264       0.00000000
Si       2.74514736       0.10433202      -2.48009820       0.00000000
Si      -2.65049160       0.04837044      -2.63602608       0.00000000
Si      -2.65049160      -2.66662956       0.07897392       0.00000000
Si       0.13290468      -2.53645074       2.84540688       0.00000000
Si       0.06450840       2.76337044      -2.63602608       0.00000000
