10
Lattice="10.86 0.0 0.0 0.0 10.86 0.0 0.0 0.0 10.86" Properties=species:S:1:pos:R:3:initial_magmoms:R:1 pbc="T T T"
Si       1.23647616      -1.26318090      -1.42264914       0.00000000
Si       1.23647616       1.45181910       1.29235086       0.00000000
Si      -1.47852384       1.45181910      -1.42264914       0.00000000
Si      -0.36060630      -2.49992856       2.55824676       0.00000000
Si       2.59397616      -2.62068090      -0.06514914       0.00000000
Si       2.59397616       0.09431910       2.64985086       0.00000000
Si      -2.53911144      -2.71960464      -0.00014118       0.00000000
Si       2.59397616       0.09431910      -2.78014914       0.00000000
Si       2.59397616       2.80931910      -0.06514914       0.00000000
Si      -0.04834872      -2.41163676      -2.97386982       0.00000000
