10
Lattice="16.2900001489832 0.0 0.0 0.0 16.2900001489832 0.0 0.0 0.0 29.47023915778811" Properties=species:S:1:pos:R:3:initial_magmoms:R:1 pbc="T T T"
Si       1.71805745      -1.11275688      -1.12084161       0.00000000
Si      -0.80464456      -1.92722593       1.07203889       0.00000000
Si      -1.61385031       1.11602791      -1.46449406       0.00000000
Si       1.11739627       1.49871259       1.59027305       0.00000000
Si       2.83416681       1.07650837      -1.65466552       0.00000000
Si      -2.11717874      -0.93076174       2.63891257       0.00000000
Si       2.17935767       2.81339706      -0.07986435       0.00000000
Si      -3.50781533       0.00452862      -0.62544689       0.00000000
Si      -3.31743410       0.77097313       1.57264984       0.00000000
Si      -1.68275702       3.34710633      -0.55681070       0.00000000
