10
Lattice="16.2900001489832 0.0 0.0 0.0 16.2900001489832 0.0 0.0 0.0 29.47023915778811" Properties=species:S:1:pos:R:3:initial_magmoms:R:1 pbc="T T T"
Si      -0.92675440      -0.12295692       2.17490365       0.00000000
Si       0.04479750       2.35343261       0.38476344       0.00000000
Si       2.37718343      -0.23151348      -0.11699685       0.00000000
Si      -0.91799038      -1.13520613      -1.94273711       0.00000000
Si       0.51675138       1.72357976       2.67595666       0.00000000
Si       0.68475016       3.14274828      -1.75315506       0.00000000
Si      -3.15296211       0.59785930       1.95971196       0.00000000
Si       2.79386535      -2.45019521      -0.77866266       0.00000000
Si       0.95158036      -3.68693202       0.02616957       0.00000000
Si      -0.74989387      -3.45913266      -1.57568528       0.00000000
