10
Lattice="16.2900001489832 0.0 0.0 0.0 16.2900001489832 0.0 0.0 0.0 29.47023915778811" Properties=species:S:1:pos:R:3:initial_magmoms:R:1 pbc="T T T"
Si      -1.32778162      -1.27606087       1.48529121       0.00000000
Si      -1.46460133       1.34783461      -1.29520522       0.00000000
Si       1.37086867       1.40634829       1.36911953       0.00000000
Si       1.27987273      -1.44725248      -1.42755607       0.00000000
Si      -2.67853214      -2.61772157       0.12614736       0.00000000
Si       2.67209759      -2.69607647       0.03574151       0.00000000
Si       0.09205479      -2.59209740       2.82494934       0.00000000
Si       2.70384680       2.73090449      -0.07004192       0.00000000
Si      -0.24615819       2.66157425      -2.79260870       0.00000000
Si      -2.66108555       2.83716417       0.09056794       0.00000000
