10
Lattice="16.2900001489832 0.0 0.0 0.0 16.2900001489832 0.0 0.0 0.0 29.47023915778811" Properties=species:S:1:pos:R:3:initial_magmoms:R:1 pbc="T T T"
Si       1.46541583       1.82614160       0.03919542       0.00000000
Si      -0.16764039      -1.05806809       2.09945984       0.00000000
Si      -1.77389957      -0.12139308      -1.55399518       0.00000000
Si       1.10136691      -1.76002049      -1.19525396       0.00000000
Si      -1.76537990      -2.58756878       1.09944621       0.00000000
Si      -2.15405930      -2.44143119      -1.25717093       0.00000000
Si       2.36617139       1.69411115      -2.12963736       0.00000000
Si       2.40813443      -0.57182788      -2.68367786       0.00000000
Si       2.03892158      -1.83179423       2.42189372       0.00000000
Si       2.65828367      -2.60814305       0.32862264       0.00000000
