10
Lattice="16.2900001489832 0.0 0.0 0.0 16.2900001489832 0.0 0.0 0.0 29.47023915778811" Properties=species:S:1:pos:R:3:initial_magmoms:R:1 pbc="T T T"
H       -0.39030840       0.30902130      -0.54528784       0.00000000
Si      -0.43583895       0.48661488       2.59989397       0.00000000
Si       0.18300186      -2.52325586      -1.42889402       0.00000000
Si       2.90434413       0.03194469       0.23166555       0.00000000
H        1.28661679       0.23436423      -2.63113242       0.00000000
H        2.50665635       1.30702816      -0.92934399       0.00000000
Si      -2.30671289       1.41662728       1.38807773       0.00000000
Si      -2.97621561       0.37841670      -0.62070218       0.00000000
Si       0.18692775      -0.74075518      -2.98088522       0.00000000
Si       1.92901295       0.63389278       2.32994658       0.00000000
