10
Lattice="16.2900001489832 0.0 0.0 0.0 16.2900001489832 0.0 0.0 0.0 29.47023915778811" Properties=species:S:1:pos:R:3:initial_magmoms:R:1 pbc="T T T"
Si       1.28643760      -1.36920025       1.41250856       0.00000000
Si       1.32260140       1.29010285      -1.46184174       0.00000000
Si      -1.36013356       1.39826845       1.35966842       0.00000000
Si      -1.41794677      -1.42874704      -1.31404849       0.00000000
Si       2.57753414       2.63160065       0.01732850       0.00000000
Si      -0.39405510      -2.50181822       2.69891397       0.00000000
Si       2.57608433      -2.77172724      -0.02555070       0.00000000
Si      -0.09889659       2.61845462      -2.77226540       0.00000000
Si      -2.71653671       2.73018773      -0.00465630       0.00000000
Si      -2.73302220      -0.06161693      -2.75328656       0.00000000
