10
Lattice="16.2900001489832 0.0 0.0 0.0 16.2900001489832 0.0 0.0 0.0 29.47023915778811" Properties=species:S:1:pos:R:3:initial_magmoms:R:1 pbc="T T T"
Si       2.06825987      -0.45556614       1.02258783       0.00000000
Si      -0.65480914       1.73688869       1.57480117       0.00000000
Si      -0.36069318       0.88687648      -2.25282296       0.00000000
Si      -1.11610936      -2.18926525       0.53382391       0.00000000
Si      -2.83416681      -1.07650837       1.65466552       0.00000000
Si      -1.71677054       0.42220422       3.24493856       0.00000000
Si       1.57152889      -1.53437140       3.07044528       0.00000000
Si       3.09177687      -2.30743943      -0.10176074       0.00000000
Si      -2.23919084       3.22442634       0.54069048       0.00000000
Si      -1.95157460       2.77431735      -2.12209298       0.00000000
