10
Lattice="16.2900001489832 0.0 0.0 0.0 16.2900001489832 0.0 0.0 0.0 29.47023915778811" Properties=species:S:1:pos:R:3:initial_magmoms:R:1 pbc="T T T"
Si      -1.35775522      -1.33630129       1.34796579       0.00000000
Si      -1.39222486       1.24882399      -1.46329757       0.00000000
Si       1.42389262      -1.26938197      -1.44005440       0.00000000
Si       1.36109467       1.37184607       1.42915630       0.00000000
Si       0.56268919       2.08751465      -2.51202963       0.00000000
Si       2.34553196       0.38617074      -2.86241781       0.00000000
Si       0.06374277      -2.66465306       2.65838945       0.00000000
Si      -2.67209759       2.69607647      -0.03574151       0.00000000
Si      -2.63852390      -2.72736956      -0.11155959       0.00000000
Si      -2.58004280       0.10397907       2.78920784       0.00000000
