10
Lattice="16.2900001489832 0.0 0.0 0.0 16.2900001489832 0.0 0.0 0.0 29.47023915778811" Properties=species:S:1:pos:R:3:initial_magmoms:R:1 pbc="T T T"
Si       1.95491405       0.83869066      -1.04873206       0.00000000
Si       1.39222486      -1.24882399       1.46329757       0.00000000
Si      -1.27987273       1.44725248       1.42755607       0.00000000
Si      -1.48768426      -1.32831919      -1.39481758       0.00000000
Si       2.81611749      -2.51820596       0.02324318       0.00000000
Si      -2.76473883      -2.59934645       0.11977295       0.00000000
Si       1.33315732       2.01409562      -2.92948028       0.00000000
Si       0.03446964      -2.58512528       2.81126336       0.00000000
Si      -2.60765435       0.17119161       2.91284728       0.00000000
Si       2.88287391       2.63878454       0.24321788       0.00000000
