10
Lattice="16.2900001489832 0.0 0.0 0.0 16.2900001489832 0.0 0.0 0.0 29.47023915778811" Properties=species:S:1:pos:R:3:initial_magmoms:R:1 pbc="T T T"
Si      -0.93755467       1.56023683      -1.49817855       0.00000000
Si       1.02828997       1.31988439       1.70833082       0.00000000
Si       1.77215654      -1.15723493      -1.22864374       0.00000000
Si      -1.90060319      -1.59768396       0.61085912       0.00000000
Si      -2.20257092      -0.10521043      -2.58038467       0.00000000
Si       1.62544879      -2.56329000       1.94373909       0.00000000
Si       1.59014836      -0.57607289       3.18293318       0.00000000
Si      -0.68976748       2.43264127       2.82917243       0.00000000
Si       0.80607808       2.74285174      -2.56788929       0.00000000
Si       0.70356511      -2.82638980      -2.53332070       0.00000000
