10
Lattice="16.2900001489832 0.0 0.0 0.0 16.2900001489832 0.0 0.0 0.0 29.47023915778811" Properties=species:S:1:pos:R:3:initial_magmoms:R:1 pbc="T T T"
Si      -2.06825987       0.45556614      -1.02258783       0.00000000
Si      -0.49673097      -1.07880526       2.04785745       0.00000000
Si       1.02351700      -1.85187328      -1.12434856       0.00000000
Si       1.00167211       1.89829001       1.13548831       0.00000000
Si      -2.72306900       2.19245483       0.55221334       0.00000000
Si      -3.18436923      -1.73369910      -0.48876392       0.00000000
Si       1.55476648      -1.13614606       3.12187084       0.00000000
Si      -0.79834033       3.47488509       1.35029689       0.00000000
Si      -0.02821428      -3.85706479      -0.47547284       0.00000000
Si       2.34364232       1.07238700       2.95630704       0.00000000
