10
Lattice="16.2900001489832 0.0 0.0 0.0 16.2900001489832 0.0 0.0 0.0 29.47023915778811" Properties=species:S:1:pos:R:3:initial_magmoms:R:1 pbc="T T T"
Si       0.73585189      -1.63302039      -1.49531993       0.00000000
Si       1.72188560       1.54654003       0.42490191       0.00000000
Si      -0.73436950      -1.12178154       1.97677523       0.00000000
Si      -1.55852947       1.45171594      -1.15296417       0.00000000
Si       3.33376482       0.22498119       1.60768996       0.00000000
Si       0.65671507       3.20655621       1.78398093       0.00000000
Si       1.29935557      -0.60372370      -3.51939490       0.00000000
Si      -3.07892406      -1.00295087       1.99015472       0.00000000
Si       2.00637416       2.81230563      -1.60377041       0.00000000
Si      -1.07378794      -2.96235282      -2.16744768       0.00000000
