10
Lattice="16.2900001489832 0.0 0.0 0.0 16.2900001489832 0.0 0.0 0.0 29.47023915778811" Properties=species:S:1:pos:R:3:initial_magmoms:R:1 pbc="T T T"
Si       0.41668191      -2.21868173      -0.66166581       0.00000000
Si       0.92839969       0.98699482      -1.93993743       0.00000000
Si      -2.37718343       0.23151348       0.11699685       0.00000000
Si       1.34429968       0.64221697       1.91462250       0.00000000
Si      -2.33238593       2.58494609       0.50176029       0.00000000
Si       2.40135779      -2.73492812       0.42613966       0.00000000
Si       2.76856698      -1.28395012       2.15135693       0.00000000
Si      -1.42560307      -3.45541854       0.14316642       0.00000000
Si       0.14268411      -0.22819358      -3.80384165       0.00000000
Si      -3.29517381      -0.90369265      -1.82574026       0.00000000
