10
Lattice="16.2900001489832 0.0 0.0 0.0 16.2900001489832 0.0 0.0 0.0 29.47023915778811" Properties=species:S:1:pos:R:3:initial_magmoms:R:1 pbc="T T T"
Si      -1.26565156       0.51668622       1.98965373       0.00000000
Si       0.91023634       1.79341499      -1.37198698       0.00000000
Si      -1.71639587      -0.95983939      -1.45196921       0.00000000
Si       1.60686190      -1.96589351       0.01712221       0.00000000
Si       2.21526083       0.34632540      -2.71438585       0.00000000
Si      -2.61366536      -1.44578638       1.89337446       0.00000000
Si       3.46626768      -1.00247032      -1.17082313       0.00000000
Si      -0.56358514      -2.32303547      -2.97796767       0.00000000
Si      -2.72218934      -2.67362885      -0.17903170       0.00000000
H        2.11944305       3.07646427      -1.02582955       0.00000000
