10
Lattice="16.2900001489832 0.0 0.0 0.0 16.2900001489832 0.0 0.0 0.0 29.47023915778811" Properties=species:S:1:pos:R:3:initial_magmoms:R:1 pbc="T T T"
Si       1.33648048       1.31062825      -1.46791261       0.00000000
Si       1.57643218      -1.36617715       1.14506614       0.00000000
Si      -1.31113324      -1.34762284      -1.49755967       0.00000000
Si      -1.43697349       1.36868581       1.41625128       0.00000000
Si      -2.62557335      -2.71160084      -0.10780213       0.00000000
Si      -2.69622308       2.66242133      -0.14425682       0.00000000
Si       2.67209759       2.70562241      -0.06881301       0.00000000
Si       2.72924291      -2.72937323      -0.38093231       0.00000000
Si      -0.06095718       2.56670129      -2.93314343       0.00000000
Si       0.57063871      -3.07996662       2.41800365       0.00000000
