10
Lattice="16.2900001489832 0.0 0.0 0.0 16.2900001489832 0.0 0.0 0.0 29.47023915778811" Properties=species:S:1:pos:R:3:initial_magmoms:R:1 pbc="T T T"
Si      -0.35925966       0.47931696       2.23611334       0.00000000
Si      -0.46307583      -2.27543609      -0.32679548       0.00000000
Si       2.32661927       0.07278372       0.29340570       0.00000000
Si      -0.67101769       1.46168542      -1.73411728       0.00000000
H       -2.24811776       1.35322660       1.21110895       0.00000000
H        1.00349659      -0.01526373       2.72125241       0.00000000
Si       2.66872556       0.58907899      -2.05758263       0.00000000
Si       0.65150227       0.31249107      -3.37139536       0.00000000
Si       2.73224028      -2.03517488       1.33447137       0.00000000
Si      -2.73937530      -2.50155758       0.24483875       0.00000000
