10
Lattice="16.2900001489832 0.0 0.0 0.0 16.2900001489832 0.0 0.0 0.0 29.47023915778811" Properties=species:S:1:pos:R:3:initial_magmoms:R:1 pbc="T T T"
Si       0.20017152      -1.76945240       1.50421995       0.00000000
Si      -1.46981413       0.82442062      -1.64579498       0.00000000
Si       1.27918855       1.82921878       0.78367260       0.00000000
Si       1.51479082      -1.22101696      -1.56389718       0.00000000
Si      -2.02290851       1.24579405       0.89784031       0.00000000
H       -0.70429816      -1.39196422       2.65865763       0.00000000
Si       1.75860326       2.41930611      -1.44734239       0.00000000
Si       2.63992484       0.79842178       2.40294436       0.00000000
Si      -0.41808285       2.82961212      -2.29467070       0.00000000
Si       2.41927679      -1.59655033       2.33757937       0.00000000
