10
Lattice="16.2900001489832 0.0 0.0 0.0 16.2900001489832 0.0 0.0 0.0 29.47023915778811" Properties=species:S:1:pos:R:3:initial_magmoms:R:1 pbc="T T T"
Si      -1.33600807      -1.81636760      -0.76784708       0.00000000
Si      -0.31654728       0.20803959       2.36666650       0.00000000
Si      -0.59054509       2.19852774      -0.77550934       0.00000000
Si       2.08039592      -1.23378832      -0.21890494       0.00000000
Si      -0.63099316      -3.40268781       0.88749625       0.00000000
Si       0.19517049       3.41371614       1.08839487       0.00000000
H        2.91045288       1.76372320       1.24614906       0.00000000
Si       1.61389918      -3.00539100       1.25098218       0.00000000
Si       1.92218744      -1.73605790      -2.58038467       0.00000000
Si      -0.36067689      -2.41831568      -2.86612811       0.00000000
