10
Lattice="16.2900001489832 0.0 0.0 0.0 16.2900001489832 0.0 0.0 0.0 29.47023915778811" Properties=species:S:1:pos:R:3:initial_magmoms:R:1 pbc="T T T"
Si       1.98467588      -0.51624639       1.08780547       0.00000000
Si      -0.41668191       2.21868173       0.66166581       0.00000000
Si      -1.84228499      -1.23673681       0.80483223       0.00000000
Si       0.31654728      -0.20803959      -2.36666650       0.00000000
Si       0.51171777       3.20567655      -1.27827162       0.00000000
Si      -0.27399780       1.99048815      -3.14217584       0.00000000
Si      -1.21520143      -3.47869695       0.68966254       0.00000000
H        3.22700016       1.55568361      -1.12051743       0.00000000
Si      -3.54375921      -1.00893745      -0.79702262       0.00000000
Si       2.35188506       0.93473161       2.81302274       0.00000000
