10
Lattice="16.2900001489832 0.0 0.0 0.0 16.2900001489832 0.0 0.0 0.0 29.47023915778811" Properties=species:S:1:pos:R:3:initial_magmoms:R:1 pbc="T T T"
H        0.38929842      -1.46067056       0.23216654       0.00000000
Si      -2.32598396       0.18932238       0.07441235       0.00000000
Si       0.95643478       0.32089671      -2.15857714       0.00000000
Si       0.94032397       1.24848190       1.82641807       0.00000000
Si       2.47909367      -0.50639094       2.15041388       0.00000000
Si      -2.61249248       2.49163697       0.06076763       0.00000000
Si       3.23548725       0.75777823      -1.58526310       0.00000000
Si      -3.11169954      -1.02586602      -1.78949186       0.00000000
Si       3.61750404      -0.92890631       0.09020840       0.00000000
Si      -0.65544445       1.64245556      -3.34136519       0.00000000
