10
Lattice="16.2900001489832 0.0 0.0 0.0 16.2900001489832 0.0 0.0 0.0 29.47023915778811" Properties=species:S:1:pos:R:3:initial_magmoms:R:1 pbc="T T T"
Si      -2.03916593       0.24604416       1.08055579       0.00000000
Si       1.56550159       0.77721220       1.55903459       0.00000000
Si      -0.21998016      -2.31480902      -0.41676812       0.00000000
Si      -0.23407101       1.34190505      -1.94689241       0.00000000
H       -2.33181578      -0.09791919      -1.36559194       0.00000000
Si       1.59554035      -1.22023504       2.80550783       0.00000000
Si      -0.60307210      -2.11783034      -2.75237299       0.00000000
Si      -1.49164273       3.05989734      -0.93320459       0.00000000
Si       3.54084330       0.53965512       0.28294377       0.00000000
Si      -1.00869310      -0.00987174      -3.79343865       0.00000000
