10
Lattice="16.2900001489832 0.0 0.0 0.0 16.2900001489832 0.0 0.0 0.0 29.47023915778811" Properties=species:S:1:pos:R:3:initial_magmoms:R:1 pbc="T T T"
Si      -1.36974466       1.24190074      -1.48161627       0.00000000
Si       0.97805161       1.91267408       1.03938586       0.00000000
Si       1.40450752      -1.41797935      -1.34425549       0.00000000
Si      -1.49747455      -1.16137927       1.49688186       0.00000000
Si      -2.65939139       2.64442773      -0.04355701       0.00000000
Si      -0.80226622       3.57014087       1.20179635       0.00000000
Si       0.05509278       2.63026008      -2.81988930       0.00000000
Si      -2.70456356      -2.75491596       0.14080880       0.00000000
Si       2.73136061      -0.06346584      -2.78137170       0.00000000
Si       0.06889041      -2.81297352      -2.74335509       0.00000000
