10
Lattice="16.2900001489832 0.0 0.0 0.0 16.2900001489832 0.0 0.0 0.0 29.47023915778811" Properties=species:S:1:pos:R:3:initial_magmoms:R:1 pbc="T T T"
Si       1.69963020       1.39650425       0.78022458       0.00000000
Si       0.00849686      -0.17108573      -2.43067586       0.00000000
Si      -0.14393518      -2.20923842       1.06113490       0.00000000
Si      -1.89369949       1.45138526       0.58990578       0.00000000
H       -2.32704607      -0.35660439       2.31974988       0.00000000
Si      -1.25933430      -1.25754403       2.87537882       0.00000000
Si       0.29065107      -2.48975222      -2.42537121       0.00000000
Si      -3.32674709       0.85841296      -1.16042014       0.00000000
Si       1.21417190       3.43164654      -0.31913322       0.00000000
Si       1.07767799       1.98227636       2.96900223       0.00000000
