10
Lattice="16.2900001489832 0.0 0.0 0.0 16.2900001489832 0.0 0.0 0.0 29.47023915778811" Properties=species:S:1:pos:R:3:initial_magmoms:R:1 pbc="T T T"
Si       0.58308427      -2.06793896      -1.00496463       0.00000000
Si      -0.95643478      -0.32089671       2.15857714       0.00000000
Si       2.27905247       0.43688151       0.57331403       0.00000000
Si      -1.61187922       1.32155884      -1.18278805       0.00000000
H        1.11159703       0.87863374      -2.47243518       0.00000000
H        1.66184066      -1.57391375      -1.98010537       0.00000000
H       -0.56713636      -1.78156727       2.39074368       0.00000000
Si       1.79292629      -2.99073000       0.85080580       0.00000000
Si       2.17517114       2.69487101       1.10448562       0.00000000
Si       2.66106926      -1.24980302       2.24878554       0.00000000
