10
Lattice="16.2900001489832 0.0 0.0 0.0 16.2900001489832 0.0 0.0 0.0 29.47023915778811" Properties=species:S:1:pos:R:3:initial_magmoms:R:1 pbc="T T T"
Si      -1.35795070      -1.37068948       1.37633090       0.00000000
Si       1.35149986      -1.49276674      -1.26990797       0.00000000
Si      -1.45109692       1.33019254      -1.35869296       0.00000000
Si       1.35335692       1.27462735       1.53458608       0.00000000
Si       2.60978834       2.62785395       0.10703886       0.00000000
Si      -2.64596843       2.58675428       0.28047416       0.00000000
Si       2.62974359      -2.78951592       0.20999314       0.00000000
Si      -2.64308510      -2.78461263      -0.06687387       0.00000000
Si       0.04096935      -2.60672582       2.85411604       0.00000000
Si       0.07221357       2.76636783       2.81456698       0.00000000
