10
Lattice="16.2900001489832 0.0 0.0 0.0 16.2900001489832 0.0 0.0 0.0 29.47023915778811" Properties=species:S:1:pos:R:3:initial_magmoms:R:1 pbc="T T T"
Si      -0.89418091      -1.87271471      -1.12237082       0.00000000
Si      -1.51023125       1.22909680       1.36203783       0.00000000
Si       1.30556043      -1.36907677       1.46305002       0.00000000
Si       1.02962412       1.67800034      -1.55719270       0.00000000
Si       1.91993779      -0.40804821      -2.36220175       0.00000000
Si       0.10870480      -1.56245536      -3.27041559       0.00000000
Si      -0.13319356       2.65069253       2.70087374       0.00000000
Si       2.50204465      -2.85840633       0.07727686       0.00000000
Si       2.58127921       2.80324839      -0.11844089       0.00000000
Si       2.68773437      -0.01431891       2.78710366       0.00000000
