10
Lattice="16.2900001489832 0.0 0.0 0.0 16.2900001489832 0.0 0.0 0.0 29.47023915778811" Properties=species:S:1:pos:R:3:initial_magmoms:R:1 pbc="T T T"
Si       1.71040115      -1.52001991       0.46235858       0.00000000
Si      -1.94367395      -1.20138751       0.54213452       0.00000000
Si       0.37783026      -0.01943397      -2.33203897       0.00000000
Si      -0.47495124       2.15576975       0.98118214       0.00000000
H        3.04059695       0.87298111      -0.35788658       0.00000000
Si      -2.73474894       2.28820745       0.08593522       0.00000000
Si      -3.20124567       0.51660477       1.55582234       0.00000000
Si       1.43177698      -3.29460366      -1.12467274       0.00000000
Si       1.45547893       1.98679358      -2.84862279       0.00000000
Si      -1.63290962       0.20009007      -3.47068060       0.00000000
