10
Lattice="16.2900001489832 0.0 0.0 0.0 16.2900001489832 0.0 0.0 0.0 29.47023915778811" Properties=species:S:1:pos:R:3:initial_magmoms:R:1 pbc="T T T"
Si      -0.87700474      -1.62499267       1.50657757       0.00000000
Si       2.32668443      -0.28230570       0.43680788       0.00000000
Si      -0.75416185       2.06233031       1.02468022       0.00000000
Si      -0.57220255      -0.02368566      -2.39204037       0.00000000
H       -0.14392215       1.77002255       2.38243307       0.00000000
Si      -3.01202103      -1.24761853       0.56615276       0.00000000
Si      -3.24426756       1.03433356       0.38608960       0.00000000
Si       0.35811936       1.89710084      -3.36217117       0.00000000
Si       3.70525013       0.71237800      -1.16893704       0.00000000
Si      -0.89834464      -0.40860207       3.88123050       0.00000000
