10
Lattice="16.2900001489832 0.0 0.0 0.0 16.2900001489832 0.0 0.0 0.0 29.47023915778811" Properties=species:S:1:pos:R:3:initial_magmoms:R:1 pbc="T T T"
Si      -2.13501629       0.37737414      -0.94042480       0.00000000
Si       0.87700474       1.62499267      -1.50657757       0.00000000
Si       0.63565210      -2.32054310      -0.83173856       0.00000000
Si      -0.02133990       1.21639060       2.37465293       0.00000000
H        0.73308259       3.39501522       0.87585551       0.00000000
Si       3.20368917       1.34268697      -1.06976968       0.00000000
Si       0.12284289       3.68732298      -0.48189735       0.00000000
Si      -2.36726282       2.65932623      -1.12048796       0.00000000
Si      -0.88099579      -0.45450729       3.82478025       0.00000000
Si      -1.74265535      -2.38340621       2.69457949       0.00000000
