10
Lattice="16.2900001489832 0.0 0.0 0.0 16.2900001489832 0.0 0.0 0.0 29.47023915778811" Properties=species:S:1:pos:R:3:initial_magmoms:R:1 pbc="T T T"
Si      -0.10388133       2.25798950       0.53117159       0.00000000
Si      -2.27905247      -0.43688151      -0.57331403       0.00000000
Si       1.59433913      -0.18541278      -1.78115178       0.00000000
Si       0.38201679      -1.68668453       1.67547151       0.00000000
H        2.04944003       0.96120775       1.97306198       0.00000000
H        1.33520986       2.74644516       0.47897980       0.00000000
H       -1.16745544       0.44175222      -3.04574922       0.00000000
H       -0.61721182      -2.01079526      -2.55341940       0.00000000
Si      -1.69596821      -2.50482047      -1.57827866       0.00000000
Si      -0.48612618      -3.42761151       0.27749177       0.00000000
