10
Lattice="16.2900001489832 0.0 0.0 0.0 16.2900001489832 0.0 0.0 0.0 29.47023915778811" Properties=species:S:1:pos:R:3:initial_magmoms:R:1 pbc="T T T"
Si      -1.43304760      -0.59297230      -1.75032591       0.00000000
Si       0.89497894       2.25763112       0.01411624       0.00000000
Si       1.89369949      -1.45138526      -0.58990578       0.00000000
Si      -1.64670725       0.05219316       1.92564437       0.00000000
H       -0.43334658      -1.80798965       1.72984410       0.00000000
H       -2.69773805       1.02869722       1.35701610       0.00000000
H       -1.66482173      -2.88349293       0.53609312       0.00000000
Si       1.32096263       2.28587798       2.32390665       0.00000000
Si      -2.27506142      -2.59118516      -0.82165974       0.00000000
Si       3.59332968      -0.05488101       0.19031880       0.00000000
