10
Lattice="16.2900001489832 0.0 0.0 0.0 16.2900001489832 0.0 0.0 0.0 29.47023915778811" Properties=species:S:1:pos:R:3:initial_magmoms:R:1 pbc="T T T"
Si      -1.30595302       1.42073236       1.39008466       0.00000000
Si      -1.81835498      -0.92017324      -1.23194028       0.00000000
Si       1.28324476      -1.44625879       1.39415744       0.00000000
Si       1.92560345       0.88187545      -1.13583577       0.00000000
Si       3.46599075      -1.00129744      -1.12898512       0.00000000
Si      -2.77790115       2.62174520      -0.03730638       0.00000000
Si       2.69796449      -0.04544910       2.73361813       0.00000000
Si      -2.66286116       0.04702923       2.79954305       0.00000000
Si      -1.23121450      -1.24173784      -3.44735195       0.00000000
Si      -3.63956070       0.69284629      -1.16750714       0.00000000
