10
Lattice="16.2900001489832 0.0 0.0 0.0 16.2900001489832 0.0 0.0 0.0 29.47023915778811" Properties=species:S:1:pos:R:3:initial_magmoms:R:1 pbc="T T T"
Si      -0.28215421       2.31866649      -0.00530464       0.00000000
Si      -1.37856570      -0.99468370       1.60574492       0.00000000
Si       0.13948638      -0.66082015      -2.25255773       0.00000000
Si       1.96946916      -1.04594833       0.75641263       0.00000000
Si       1.15202067      -3.07680636      -0.25671525       0.00000000
H       -0.76190448      -2.01885230      -2.56217206       0.00000000
Si      -0.29065107       2.48975222       2.42537121       0.00000000
Si       1.51745424       2.77082803      -1.51594910       0.00000000
Si      -0.43458625       0.28051380       3.48650611       0.00000000
Si      -0.57730946      -3.22170591       1.33962866       0.00000000
