10
Lattice="16.2900001489832 0.0 0.0 0.0 16.2900001489832 0.0 0.0 0.0 29.47023915778811" Properties=species:S:1:pos:R:3:initial_magmoms:R:1 pbc="T T T"
Si      -1.39613446      -1.31906919      -1.39291675       0.00000000
Si      -1.34210053       1.39733178       1.37791050       0.00000000
Si       1.31507542      -1.36713012       1.43923807       0.00000000
Si       1.35335692       1.28900328      -1.47850422       0.00000000
Si       2.63412560       2.68007155      -0.01897883       0.00000000
Si       2.63042777      -2.71437829      -0.07744779       0.00000000
Si      -0.16508286       2.66585038      -2.71046925       0.00000000
Si      -2.79037440       0.02823546       2.67221394       0.00000000
Si      -0.06558354      -2.56806151      -2.89360911       0.00000000
Si       2.73302220       0.06161693       2.75328656       0.00000000
