10
Lattice="16.2900001489832 0.0 0.0 0.0 16.2900001489832 0.0 0.0 0.0 29.47023915778811" Properties=species:S:1:pos:R:3:initial_magmoms:R:1 pbc="T T T"
Si      -1.15461403       1.41641225      -1.42824567       0.00000000
Si       1.26501625       1.66544726       1.08220612       0.00000000
Si       1.50605938      -1.34213311      -1.29368456       0.00000000
Si      -1.49604266      -1.17408547       1.59743431       0.00000000
Si       2.20257092       0.10521043       2.58038467       0.00000000
Si       0.30196773      -1.49247352       3.19124379       0.00000000
Si      -2.25713590       2.72686457       0.21197943       0.00000000
Si      -2.48388293      -0.00956223      -2.72452361       0.00000000
Si      -2.58035231      -2.75944458       0.06624910       0.00000000
Si      -0.27662049       3.48343734       1.51556599       0.00000000
