10
Lattice="16.2900001489832 0.0 0.0 0.0 16.2900001489832 0.0 0.0 0.0 29.47023915778811" Properties=species:S:1:pos:R:3:initial_magmoms:R:1 pbc="T T T"
Si       0.78227839       1.93675070      -1.20848610       0.00000000
Si       1.54163674      -1.81799008      -0.43335987       0.00000000
Si       0.17557362       0.17044227       2.42949705       0.00000000
Si      -1.98051541      -0.75657277      -1.30358656       0.00000000
Si       1.92886634       0.69654412      -2.86739533       0.00000000
Si       3.28526949      -0.63537517      -1.50307061       0.00000000
Si      -0.87799354      -2.06702509      -2.94381166       0.00000000
Si       0.27662049      -3.48343734      -1.51556599       0.00000000
Si      -1.71839139      -0.94105702       3.26854422       0.00000000
Si      -3.43701084      -0.16174341       1.83357934       0.00000000
