10
Lattice="16.2900001489832 0.0 0.0 0.0 16.2900001489832 0.0 0.0 0.0 29.47023915778811" Properties=species:S:1:pos:R:3:initial_magmoms:R:1 pbc="T T T"
Si       1.14658795      -1.24020658      -1.65890923       0.00000000
Si      -0.78227839      -1.93675070       1.20848610       0.00000000
Si      -1.54753372       1.36275625      -1.36317538       0.00000000
Si       1.88973776       0.96848938       1.32571871       0.00000000
Si       2.50299110      -2.57212586      -0.29458451       0.00000000
Si       2.42890418       2.73961965      -0.25754042       0.00000000
Si       3.48061917      -0.91895149       1.19498873       0.00000000
Si      -2.76279380      -2.69332346      -0.09510046       0.00000000
Si       0.75935836      -3.75474078       0.77512623       0.00000000
Si       2.54194049       0.08834067      -2.98527629       0.00000000
