10
Lattice="16.2900001489832 0.0 0.0 0.0 16.2900001489832 0.0 0.0 0.0 29.47023915778811" Properties=species:S:1:pos:R:3:initial_magmoms:R:1 pbc="T T T"
Si       0.18251316       0.41712174       2.29688097       0.00000000
Si       1.88043617       1.11764062      -0.84264255       0.00000000
Si      -0.33024717      -2.33683310      -0.55138817       0.00000000
Si      -1.98174368       1.23017194      -0.77471365       0.00000000
H       -2.31458096      -0.67492729       1.24715105       0.00000000
Si      -1.80592571      -0.83650780       2.66263611       0.00000000
Si       0.96560605       1.04370031      -3.08379530       0.00000000
Si      -2.25385184      -2.13760640      -1.94645036       0.00000000
Si       1.87921442       3.12062646       0.53237987       0.00000000
Si       0.27352539       2.81294094       2.36221649       0.00000000
