10
Lattice="16.2900001489832 0.0 0.0 0.0 16.2900001489832 0.0 0.0 0.0 29.47023915778811" Properties=species:S:1:pos:R:3:initial_magmoms:R:1 pbc="T T T"
Si      -1.69963020      -1.39650425      -0.78022458       0.00000000
Si      -0.62195221       0.58577212       2.18877765       0.00000000
Si       2.22620771      -0.72081622       0.21519169       0.00000000
Si      -0.48545829       2.03514230      -1.09935780       0.00000000
Si       1.55690047       3.08744373      -0.39345716       0.00000000
Si      -2.69835074       2.31251213      -0.17620256       0.00000000
Si      -3.59332968       0.05488101      -0.19031880       0.00000000
Si       3.15296211      -0.59785930      -1.95971196       0.00000000
Si       1.20723562       1.49187079       3.38323945       0.00000000
Si      -2.27236705       2.34075899       2.13358785       0.00000000
