10
Lattice="10.86 0.0 0.0 0.0 10.86 0.0 0.0 0.0 10.86" Properties=species:S:1:pos:R:3:initial_magmoms:R:1 pbc="T T T"
Si       1.26251844      -1.43708208      -1.40790126       0.00000000
Si      -1.45248156       1.27791792      -1.40790126       0.00000000
Si      -1.45248156      -1.43708208       1.30709874       0.00000000
Si       2.58263832      -0.22081638       2.46138642       0.00000000
Si      -2.63611296       2.65958142      -0.05536428       0.00000000
Si       2.62001844      -0.07958208      -2.76540126       0.00000000
Si      -0.09498156       2.63541792      -2.76540126       0.00000000
Si       2.62001844      -2.79458208      -0.05040126       0.00000000
Si      -0.09498156      -2.79458208       2.66459874       0.00000000
Si      -0.09498156      -2.79458208      -2.76540126       0.00000000
