10
Lattice="10.86 0.0 0.0 0.0 10.86 0.0 0.0 0.0 10.86" Properties=species:S:1:pos:R:3:initial_magmoms:R:1 pbc="T T T"
Si       0.13875822      -1.52513496       1.60747548       0.00000000
Si      -1.28997252       1.77805350       0.55748724       0.00000000
Si      -1.19041890      -0.80347710      -1.84698192       0.00000000
Si       1.17811452       1.80963438      -1.96299930       0.00000000
Si      -2.70302142       0.61565340       1.96811436       0.00000000
Si      -1.30142982      -3.13854000       0.65203440       0.00000000
Si      -2.70302142      -2.09934660      -0.74688564       0.00000000
Si      -1.27164084      -0.75979818       3.27954624       0.00000000
Si       0.01197858       3.33065340       1.96811436       0.00000000
Si       0.01197858      -2.09934660      -3.46188564       0.00000000
