10
Lattice="16.28999089631971 0.0 0.0 0.0 16.28999089631971 0.0 0.0 0.0 34.376317263855086" Properties=species:S:1:pos:R:3:initial_magmoms:R:1 pbc="T T T"
Si       1.68487470       0.94019201      -1.35299902       0.00000000
Si      -1.03663044      -1.63896201      -1.35000827       0.00000000
Si       1.31675328      -1.22563584       1.54505476       0.00000000
Si      -1.38458484       1.46964959       1.50591730       0.00000000
Si       2.56251474      -2.57664699       0.12393013       0.00000000
Si      -2.65953798      -2.53476540       0.12150316       0.00000000
Si       0.70076322      -3.42612162      -1.26430807       0.00000000
Si       3.43170027      -0.91416548      -1.48765113       0.00000000
Si       2.71528236       2.77618904       0.05518433       0.00000000
Si      -0.02969667      -2.58857127       2.90215345       0.00000000
