10
Lattice="16.28999089631971 0.0 0.0 0.0 16.28999089631971 0.0 0.0 0.0 34.376317263855086" Properties=species:S:1:pos:R:3:initial_magmoms:R:1 pbc="T T T"
Si      -0.85872735      -1.84192170      -1.20970328       0.00000000
Si      -1.76782338      -0.44246898       1.51905593       0.00000000
Si       0.23936526       2.34616725      -0.52698924       0.00000000
Si       1.06554519       1.47440790      -2.65388755       0.00000000
Si      -2.11924755      -2.69815247       0.94198037       0.00000000
Si      -2.24603262      -0.56283253      -2.80809980       0.00000000
Si       2.15643762       2.86475940       0.80890957       0.00000000
Si      -0.81436968       0.17718633       3.58125798       0.00000000
Si       1.81082898      -2.24550224       2.29259226       0.00000000
Si       1.49762115      -0.17200611       3.58490187       0.00000000
