10
Lattice="16.28999089631971 0.0 0.0 0.0 16.28999089631971 0.0 0.0 0.0 34.376317263855086" Properties=species:S:1:pos:R:3:initial_magmoms:R:1 pbc="T T T"
Si       1.35659862      -1.35234693       1.35783091       0.00000000
Si      -1.34431596      -1.34767170      -1.38503978       0.00000000
Si      -1.35705474       1.36221867       1.35875908       0.00000000
Si       1.35817875       1.35840681      -1.38530104       0.00000000
Si       2.71549413      -2.71103067      -0.00515645       0.00000000
Si      -2.71714919      -2.70992295      -0.00254385       0.00000000
Si      -0.00034209      -2.71124244       2.71624623       0.00000000
Si       2.71489140       0.00373041       2.71583371       0.00000000
Si      -2.71543223       0.00381186       2.71597122       0.00000000
Si       2.71287144       2.72026710      -0.00391890       0.00000000
