10
Lattice="16.28999089631971 0.0 0.0 0.0 16.28999089631971 0.0 0.0 0.0 34.376317263855086" Properties=species:S:1:pos:R:3:initial_magmoms:R:1 pbc="T T T"
Si      -1.17208179       1.48535478      -1.50186776       0.00000000
Si       1.49900580      -1.22010471      -1.49207051       0.00000000
Si       1.53376866       1.23588972       1.48608903       0.00000000
Si      -1.83400965      -0.96536169       1.43809966       0.00000000
Si      -2.48269374       2.73727386      -0.03585452       0.00000000
Si      -3.48513147       0.83838114       1.04930329       0.00000000
Si      -2.55217059       0.14006142      -2.85956117       0.00000000
Si       0.16399143      -2.57507433      -2.86317069       0.00000000
Si       2.72906370      -2.72533329      -0.17401302       0.00000000
Si      -2.78412390      -2.72352510      -0.04190475       0.00000000
