10
Lattice="16.28999089631971 0.0 0.0 0.0 16.28999089631971 0.0 0.0 0.0 34.376317263855086" Properties=species:S:1:pos:R:3:initial_magmoms:R:1 pbc="T T T"
Si       1.91707236       0.51859215       1.33589881       0.00000000
Si      -0.23936526      -2.34616725       0.52698924       0.00000000
Si       0.82617993      -0.87175935      -2.12689831       0.00000000
Si      -2.10958758       1.45937223       0.56786270       0.00000000
Si       3.34782306      -0.93719628      -0.01626001       0.00000000
Si      -2.00718864      -2.78863623       2.04604517       0.00000000
Si      -1.29650481       3.19290516       2.07210243       0.00000000
Si      -0.76553226      -1.88079453      -3.58081109       0.00000000
Si       2.16736821      -0.36966897       3.55502884       0.00000000
Si       1.88623539       0.76611870      -3.67723671       0.00000000
