10
Lattice="16.28999089631971 0.0 0.0 0.0 16.28999089631971 0.0 0.0 0.0 34.376317263855086" Properties=species:S:1:pos:R:3:initial_magmoms:R:1 pbc="T T T"
Si      -1.62222336       1.70150679       0.46053978       0.00000000
Si      -0.81308277      -1.73353293      -1.50423973       0.00000000
Si       0.63177507      -1.10591181       2.18100667       0.00000000
Si       1.10012886       1.92930615      -1.90963987       0.00000000
Si       2.55016692       2.44731186      -0.19597949       0.00000000
Si      -2.16448488      -2.89725795       0.47181522       0.00000000
Si      -2.14364997       1.30360725       2.73883148       0.00000000
Si      -0.06051735       0.60088923       3.67524289       0.00000000
Si      -0.68636286      -3.11994225       2.35955736       0.00000000
Si       1.29650481      -3.19290516      -2.07210243       0.00000000
