10
Lattice="16.28999089631971 0.0 0.0 0.0 16.28999089631971 0.0 0.0 0.0 34.376317263855086" Properties=species:S:1:pos:R:3:initial_magmoms:R:1 pbc="T T T"
Si      -1.31061195       1.25191908       1.46601325       0.00000000
Si       1.33711578       1.36772469      -1.35917159       0.00000000
Si      -1.38008880      -1.34529336      -1.35769341       0.00000000
Si       1.17208179      -1.48535478       1.50186776       0.00000000
Si      -2.31304968      -0.64697364       2.55117106       0.00000000
Si       2.67108759      -2.70545949       0.00979726       0.00000000
Si       2.68353315       2.72585457       0.03159185       0.00000000
Si       2.69255781       0.00922014      -2.72050889       0.00000000
Si      -0.02107926      -2.70690930      -2.71961511       0.00000000
Si      -2.72997920       2.70752832       0.01498808       0.00000000
