10
Lattice="16.28999089631971 0.0 0.0 0.0 16.28999089631971 0.0 0.0 0.0 34.376317263855086" Properties=species:S:1:pos:R:3:initial_magmoms:R:1 pbc="T T T"
Si      -1.33711578      -1.36772469       1.35917159       0.00000000
Si       1.35544203      -1.35850455      -1.36133730       0.00000000
Si      -1.35933534       1.35610992      -1.36040914       0.00000000
Si       1.34641737       1.35812988       1.39076344       0.00000000
Si       2.71521720      -2.71192662      -0.00216571       0.00000000
Si       2.71120986       2.71867068       0.00096254       0.00000000
Si      -2.71720458      -2.71301805       0.00147818       0.00000000
Si       2.71384884      -0.00011403      -2.71762128       0.00000000
Si      -2.71642266       2.71586880       0.00013751       0.00000000
Si      -0.00094482       2.71480995      -2.71779316       0.00000000
