10
Lattice="16.28999089631971 0.0 0.0 0.0 16.28999089631971 0.0 0.0 0.0 34.376317263855086" Properties=species:S:1:pos:R:3:initial_magmoms:R:1 pbc="T T T"
Si      -1.45003806      -0.51800571      -1.71366037       0.00000000
Si      -0.59023557       1.32159141       1.82448968       0.00000000
Si       1.73685609      -1.42330617       0.79729037       0.00000000
Si       1.28940237       1.84542894      -1.72442017       0.00000000
Si      -2.38814658       1.67852160      -1.92521235       0.00000000
Si      -2.55016692      -2.44731186       0.19597949       0.00000000
Si       1.50620598       2.49103422       2.02098482       0.00000000
Si       2.78943444       2.19745584       0.01148170       0.00000000
Si       3.58538013      -0.02280600       0.39206212       0.00000000
Si       1.86183297      -3.01184181      -0.84637978       0.00000000
