10
Lattice="16.28999089631971 0.0 0.0 0.0 16.28999089631971 0.0 0.0 0.0 34.376317263855086" Properties=species:S:1:pos:R:3:initial_magmoms:R:1 pbc="T T T"
Si       0.59023557      -1.32159141      -1.82448968       0.00000000
Si      -1.70929341       1.56025620      -0.26046950       0.00000000
Si      -0.47472318      -1.37635839       1.85078758       0.00000000
Si       2.09644155       1.16944281       0.19649514       0.00000000
Si       1.70354304      -1.85691339       2.53817680       0.00000000
Si      -2.32731972       1.88059905       2.00365915       0.00000000
Si      -1.42087896       0.15278391       3.31882903       0.00000000
Si       3.13540146      -0.07050312       1.88867030       0.00000000
Si       2.32709166      -2.74489758      -1.02719931       0.00000000
Si      -0.89091639       3.25001790      -1.72579522       0.00000000
