10
Lattice="16.28999089631971 0.0 0.0 0.0 16.28999089631971 0.0 0.0 0.0 34.376317263855086" Properties=species:S:1:pos:R:3:initial_magmoms:R:1 pbc="T T T"
Si      -0.59440581       1.72302588      -1.41097673       0.00000000
Si      -1.40506137      -1.21161762       1.44762191       0.00000000
Si       1.51479081       0.76447341       1.66818048       0.00000000
Si       0.98052768      -1.76103045      -1.44906571       0.00000000
Si       2.16999090      -1.47936006       1.67942154       0.00000000
Si       0.17011647      -2.79555948       2.06292395       0.00000000
Si       3.09013155      -1.71522297      -0.46249923       0.00000000
Si      -2.99389023      -1.95049944      -0.06840891       0.00000000
Si      -1.98288396       0.63586386      -2.96434025       0.00000000
Si       1.32807483       2.96124507      -1.85941604       0.00000000
