10
Lattice="16.28999089631971 0.0 0.0 0.0 16.28999089631971 0.0 0.0 0.0 34.376317263855086" Properties=species:S:1:pos:R:3:initial_magmoms:R:1 pbc="T T T"
Si       1.88359641      -1.47211101       0.14506814       0.00000000
Si      -1.79395254      -1.63901835      -0.05572404       0.00000000
Si      -0.29032038       1.46251620      -1.96120437       0.00000000
Si      -0.88695792       1.25406936       1.96818277       0.00000000
Si      -1.75756068       3.14414497      -0.68934868       0.00000000
Si      -1.52015022       0.07907166      -3.51663047       0.00000000
Si       0.59419404      -3.31753995       1.86948831       0.00000000
Si      -1.70533494      -0.43569234       3.43350849       0.00000000
Si      -3.07939644      -1.17245646      -2.05123600       0.00000000
Si      -0.85584402      -3.83554566       0.15582793       0.00000000
