10
Lattice="16.28999089631971 0.0 0.0 0.0 16.28999089631971 0.0 0.0 0.0 34.376317263855086" Properties=species:S:1:pos:R:3:initial_magmoms:R:1 pbc="T T T"
Si       1.13749812      -0.45770013      -2.01304389       0.00000000
Si      -2.34211104      -0.15613965       0.26490405       0.00000000
Si       0.24052185       2.35802541      -0.08071564       0.00000000
Si       0.93848319      -1.44976113       1.65332990       0.00000000
Si      -0.98399745      -2.68798032       2.10176921       0.00000000
Si      -2.45107485      -0.92694987       2.57698769       0.00000000
Si      -0.04355946       0.80858673      -3.65145446       0.00000000
Si      -0.35676729       2.88208286      -2.35914484       0.00000000
Si       2.43923202       2.75972867       0.67711070       0.00000000
Si       3.42640602       0.24009831      -1.58168962       0.00000000
