10
Lattice="16.28999089631971 0.0 0.0 0.0 16.28999089631971 0.0 0.0 0.0 34.376317263855086" Properties=species:S:1:pos:R:3:initial_magmoms:R:1 pbc="T T T"
Si       1.59022980       1.74087972      -0.07267158       0.00000000
Si       1.27317753      -1.98177624       0.20667053       0.00000000
Si      -1.71206271       0.35429121      -1.63009150       0.00000000
Si      -0.67202766      -0.56565396       2.27200083       0.00000000
Si       0.41726835       3.27456693       1.50681796       0.00000000
Si      -2.18458674       2.71103067      -1.15006034       0.00000000
Si       3.46504590      -1.15895205       0.62148979       0.00000000
Si       3.42888210       1.04531301       1.43710275       0.00000000
Si       1.56871071      -3.07636650      -1.83985590       0.00000000
Si       1.57079583       2.80246644      -2.24209342       0.00000000
