10
Lattice="16.28999089631971 0.0 0.0 0.0 16.28999089631971 0.0 0.0 0.0 34.376317263855086" Properties=species:S:1:pos:R:3:initial_magmoms:R:1 pbc="T T T"
Si      -1.35573525       1.35099975       1.35721214       0.00000000
Si       1.35257499       1.34844222      -1.36796506       0.00000000
Si       1.35708732      -1.36161416       1.35618085       0.00000000
Si      -1.36686132      -1.35664979      -1.35775185       0.00000000
Si       2.57856039      -0.09459277      -2.77974620       0.00000000
Si      -2.71285515       2.71097040      -0.00711590       0.00000000
Si       2.71669959       2.70781014      -0.00316262       0.00000000
Si       0.00156384       2.71048170       2.71411489       0.00000000
Si      -2.71340901      -0.00428590       2.71397739       0.00000000
Si       2.71595025      -0.00391286       2.71383988       0.00000000
