10
Lattice="16.28999089631971 0.0 0.0 0.0 16.28999089631971 0.0 0.0 0.0 34.376317263855086" Properties=species:S:1:pos:R:3:initial_magmoms:R:1 pbc="T T T"
Si      -1.35257499      -1.34844222       1.36796506       0.00000000
Si       1.36412460       1.35936792       1.36480244       0.00000000
Si       1.22598540      -1.44303499      -1.41178114       0.00000000
Si      -1.32090723       1.29673287      -1.47965721       0.00000000
Si       2.31197454       0.40218381      -2.52109451       0.00000000
Si       0.55820943       2.21754141      -2.80207160       0.00000000
Si      -2.35131489      -0.53926416      -2.88784056       0.00000000
Si      -2.71943631      -2.70509201       0.01021321       0.00000000
Si       2.71720458      -2.71366055      -0.01629438       0.00000000
Si      -2.70347211       2.72930805      -0.03202500       0.00000000
