10
Lattice="16.28999089631971 0.0 0.0 0.0 16.28999089631971 0.0 0.0 0.0 34.376317263855086" Properties=species:S:1:pos:R:3:initial_magmoms:R:1 pbc="T T T"
Si       1.32090723      -1.29673287       1.47965721       0.00000000
Si      -1.38256488       1.43257518       1.44763222       0.00000000
Si       1.87911666       0.92080854      -1.32241439       0.00000000
Si      -1.03040766      -1.83599703      -1.40818335       0.00000000
Si       0.58487616       0.06413373      -3.47688253       0.00000000
Si       2.54689263      -2.73976786       0.06787608       0.00000000
Si       2.72168433       2.75040360       0.03129278       0.00000000
Si       3.63288177      -0.89454906      -1.04143730       0.00000000
Si      -2.71528236      -2.77618904      -0.05518433       0.00000000
Si      -0.03166776      -2.64517509       2.84762227       0.00000000
