10
Lattice="16.28999089631971 0.0 0.0 0.0 16.28999089631971 0.0 0.0 0.0 34.376317263855086" Properties=species:S:1:pos:R:3:initial_magmoms:R:1 pbc="T T T"
Si      -0.86120343       2.09759628      -0.79044948       0.00000000
Si      -0.14885802       0.02775956       2.45364539       0.00000000
Si       1.94970123      -1.24857238      -1.03184012       0.00000000
Si      -1.66524525      -0.09501232      -2.02713819       0.00000000
Si       1.57123566      -2.02501894       2.41775650       0.00000000
Si      -3.38128272      -1.35144373      -0.72771267       0.00000000
Si       0.90821637       2.67918186      -2.42923819       0.00000000
Si       0.81151893      -2.86789612      -2.33463452       0.00000000
Si      -0.40260735       3.58107771       1.21059707       0.00000000
Si       0.67924413       2.41231908       2.98926309       0.00000000
