10
Lattice="16.28999089631971 0.0 0.0 0.0 16.28999089631971 0.0 0.0 0.0 34.376317263855086" Properties=species:S:1:pos:R:3:initial_magmoms:R:1 pbc="T T T"
Si       2.30338971      -0.49715451      -0.21089882       0.00000000
Si      -0.01039302       1.12757751       2.09987851       0.00000000
Si      -1.08185148       1.16875863      -1.77866603       0.00000000
Si      -0.82810215      -2.38455952      -0.53561770       0.00000000
Si      -2.26230633       1.73628594       1.79262282       0.00000000
Si       0.81663399      -0.67377069       3.41920793       0.00000000
Si      -2.51260218       2.62454706      -0.42650721       0.00000000
Si       2.88191277       0.09632277      -2.57901589       0.00000000
Si       3.57480792       1.52546076      -0.04633930       0.00000000
Si      -0.67924413      -2.41231908      -2.98926309       0.00000000
