10
Lattice="16.28999089631971 0.0 0.0 0.0 16.28999089631971 0.0 0.0 0.0 34.376317263855086" Properties=species:S:1:pos:R:3:initial_magmoms:R:1 pbc="T T T"
Si       1.35804843       1.62020340      -1.10561173       0.00000000
Si       1.08185148      -1.16875863       1.77866603       0.00000000
Si      -1.43075070       1.45578843       1.35215882       0.00000000
Si      -0.45859608      -1.48348143      -2.00104655       0.00000000
Si      -2.52164313       0.06543693      -2.11063831       0.00000000
Si      -3.34782306       0.93719628       0.01626001       0.00000000
Si       2.82328506       0.34239951      -2.31228990       0.00000000
Si      -0.23232798       3.56557149       1.04600317       0.00000000
Si       0.25374933      -3.55331815       1.24304833       0.00000000
Si       0.40260735      -3.58107771      -1.21059707       0.00000000
