10
Lattice="16.28999089631971 0.0 0.0 0.0 16.28999089631971 0.0 0.0 0.0 34.376317263855086" Properties=species:S:1:pos:R:3:initial_magmoms:R:1 pbc="T T T"
Si       0.14502987       0.65914716       2.16931871       0.00000000
Si       0.51036570       1.29773145      -1.88310134       0.00000000
Si       1.50332265      -1.81162949       0.25197855       0.00000000
Si      -2.23814826      -0.74482115       0.32588767       0.00000000
Si      -1.71242109      -2.48111591       1.80193881       0.00000000
Si       1.60594965      -0.38871687      -3.11129909       0.00000000
Si       2.34207846       1.28728956       2.38740219       0.00000000
Si      -1.27296576       2.55132840       2.19905424       0.00000000
Si       0.03240081      -3.63913943       0.73383165       0.00000000
Si      -3.09866751       1.05044925       1.79210717       0.00000000
