10
Lattice="16.28999089631971 0.0 0.0 0.0 16.28999089631971 0.0 0.0 0.0 34.376317263855086" Properties=species:S:1:pos:R:3:initial_magmoms:R:1 pbc="T T T"
Si       1.88358012      -1.37157306      -0.41646932       0.00000000
Si       0.66199302       1.08861509       2.00097779       0.00000000
Si      -0.72394389       1.47724562      -1.72820156       0.00000000
Si      -1.87180245      -1.46300883       0.67556376       0.00000000
Si       0.73005264      -0.89947257       3.33244206       0.00000000
Si       1.90301409      -2.43315978       1.75295253       0.00000000
Si      -2.96662077       0.73924020      -2.02562563       0.00000000
Si       1.22507316      -2.55473205      -2.39761196       0.00000000
Si      -3.77034493      -0.10220509       0.02719168       0.00000000
Si      -0.10296909       3.72933812      -1.19038378       0.00000000
