10
Lattice="16.28999089631971 0.0 0.0 0.0 16.28999089631971 0.0 0.0 0.0 34.376317263855086" Properties=species:S:1:pos:R:3:initial_magmoms:R:1 pbc="T T T"
Si       1.35278676       1.34109054      -1.36711940       0.00000000
Si       1.35356868      -1.35438318       1.35814030       0.00000000
Si      -1.35969372       1.35840681       1.35841531       0.00000000
Si      -1.35536058      -1.34612415      -1.39782434       0.00000000
Si      -0.06525774       2.66877441      -2.73626700       0.00000000
Si       2.71223613      -2.71606428      -0.00099691       0.00000000
Si       2.71218726       0.00151497       2.71662437       0.00000000
Si       2.71191033       2.71718829      -0.00388453       0.00000000
Si      -0.00289962      -2.71339272       2.71628060       0.00000000
Si      -2.71731861      -2.71290402      -0.00495019       0.00000000
