10
Lattice="16.28999089631971 0.0 0.0 0.0 16.28999089631971 0.0 0.0 0.0 34.376317263855086" Properties=species:S:1:pos:R:3:initial_magmoms:R:1 pbc="T T T"
Si       1.63574406      -0.25772409       1.63504169       0.00000000
Si      -0.62744193       2.23814826      -0.16631272       0.00000000
Si       0.40211865      -1.09620297      -2.05512052       0.00000000
Si      -1.53091791      -1.31170338       1.29402843       0.00000000
Si      -1.54758258       2.47401117       1.97560806       0.00000000
Si      -1.21306743      -3.37123179       0.29113319       0.00000000
Si      -1.13000472      -2.84970744      -1.98378963       0.00000000
Si      -2.73704580       2.19234078      -1.15287920       0.00000000
Si       0.50958378       0.13504410       3.67861177       0.00000000
Si       2.54964564      -2.02136094      -1.83184622       0.00000000
