10
Lattice="16.28999089631971 0.0 0.0 0.0 16.28999089631971 0.0 0.0 0.0 34.376317263855086" Properties=species:S:1:pos:R:3:initial_magmoms:R:1 pbc="T T T"
Si       1.06893351      -0.83898387       1.88502641       0.00000000
Si      -0.28300617       2.29591260      -0.23272780       0.00000000
Si      -1.97162757      -1.26679185      -0.00103129       0.00000000
Si       1.12616028      -0.39276819      -2.04357007       0.00000000
Si       2.44841958      -2.33336331       0.60148276       0.00000000
Si      -2.04050169      -1.44674748      -2.38458333       0.00000000
Si      -2.05716636       2.33896707      -1.70300371       0.00000000
Si       2.62371627       1.41931512      -2.16646548       0.00000000
Si      -0.50958378      -0.13504410      -3.67861177       0.00000000
Si      -1.44368496      -3.10510206       1.53222207       0.00000000
