10
Lattice="16.28999089631971 0.0 0.0 0.0 16.28999089631971 0.0 0.0 0.0 34.376317263855086" Properties=species:S:1:pos:R:3:initial_magmoms:R:1 pbc="T T T"
Si      -1.35783666       1.35637056       1.36212796       0.00000000
Si       1.35879777      -1.35848826       1.36226546       0.00000000
Si       1.36624230       1.36228383      -1.35614304       0.00000000
Si      -1.35912357      -1.37609775      -1.36323487       0.00000000
Si      -0.01656693       2.63125854      -2.76894859       0.00000000
Si       2.71388142      -2.71428867       0.00732216       0.00000000
Si       2.71507059       2.71388142       0.00536271       0.00000000
Si      -2.71191033      -2.71718829       0.00388453       0.00000000
Si      -2.71490769       2.71928970       0.00347201       0.00000000
Si      -2.71474479      -0.00052128       2.71971824       0.00000000
