10
Lattice="16.28999089631971 0.0 0.0 0.0 16.28999089631971 0.0 0.0 0.0 34.376317263855086" Properties=species:S:1:pos:R:3:initial_magmoms:R:1 pbc="T T T"
Si       1.50003207       0.35202690       1.73590186       0.00000000
Si      -1.88359641       1.47211101      -0.14506814       0.00000000
Si       1.11037527      -0.32812947      -2.23893079       0.00000000
Si      -1.28940237      -1.84542894       1.72442017       0.00000000
Si      -2.73944043      -2.36343465       0.01075979       0.00000000
Si       2.29597776      -1.86823494       2.11648228       0.00000000
Si      -3.67754895      -0.16690734      -0.20079218       0.00000000
Si       2.77860159       2.26105200       1.03919665       0.00000000
Si       0.21680361       0.64560528       3.74540499       0.00000000
Si      -0.59823396      -1.26685701      -3.66173298       0.00000000
