10
Lattice="16.28999089631971 0.0 0.0 0.0 16.28999089631971 0.0 0.0 0.0 34.376317263855086" Properties=species:S:1:pos:R:3:initial_magmoms:R:1 pbc="T T T"
Si       0.12497688      -1.58853564      -1.64367015       0.00000000
Si       1.84852404       1.40050017      -0.40522825       0.00000000
Si      -1.73685609       1.42330617      -0.79729037       0.00000000
Si       0.01440036      -0.94405437       2.21187662       0.00000000
Si       2.64728790       1.89141561       1.71225094       0.00000000
Si      -0.62354862       0.88798419       3.56537611       0.00000000
Si      -2.32709166       2.74489758       1.02719931       0.00000000
Si      -0.47513043      -0.58169961      -3.70631909       0.00000000
Si       2.40759684      -1.92033036      -2.27994176       0.00000000
Si       1.05257835       3.62076201      -0.78580868       0.00000000
