10
Lattice="16.28999089631971 0.0 0.0 0.0 16.28999089631971 0.0 0.0 0.0 34.376317263855086" Properties=species:S:1:pos:R:3:initial_magmoms:R:1 pbc="T T T"
Si       1.77416019      -0.04305447       1.47027591       0.00000000
Si      -0.65520009       2.24383347      -0.01124106       0.00000000
Si       0.92014065      -0.23586291      -2.14192077       0.00000000
Si      -1.99987443      -1.31619942       0.38350241       0.00000000
Si      -2.16999090       1.47936006      -1.67942154       0.00000000
Si      -1.18946322      -0.28167039      -3.12848725       0.00000000
Si       1.54758258      -2.47401117      -1.97560806       0.00000000
Si      -1.67871708       2.18515689       2.22954605       0.00000000
Si       2.05716636      -2.33896707       1.70300371       0.00000000
Si      -3.57505227       0.26774244      -0.23179964       0.00000000
