10
Lattice="16.28999089631971 0.0 0.0 0.0 16.28999089631971 0.0 0.0 0.0 34.376317263855086" Properties=species:S:1:pos:R:3:initial_magmoms:R:1 pbc="T T T"
Si      -1.24576146       1.35101115       1.42112463       0.00000000
Si       1.47092184      -1.37585340       1.39621553       0.00000000
Si      -1.86175152      -0.84947463      -1.38823820       0.00000000
Si       0.86918553       1.66248151      -1.61158126       0.00000000
Si      -2.56251474       2.57664699      -0.12393013       0.00000000
Si       2.69966025       2.61306817      -0.00086972       0.00000000
Si      -2.59221141      -0.01192428       2.77822332       0.00000000
Si      -2.68340283      -2.72686455      -0.15215310       0.00000000
Si       0.12109986       2.70766094       2.77887647       0.00000000
Si       0.12256596      -2.72197755       2.77629825       0.00000000
