10
Lattice="16.28999089631971 0.0 0.0 0.0 16.28999089631971 0.0 0.0 0.0 34.376317263855086" Properties=species:S:1:pos:R:3:initial_magmoms:R:1 pbc="T T T"
Si      -1.35733167       1.35117405      -1.36209358       0.00000000
Si       1.34581464       1.35182565       1.38436945       0.00000000
Si       1.36014984      -1.36199061      -1.36071853       0.00000000
Si      -1.36479249      -1.36054080       1.38980091       0.00000000
Si       2.52853380      -0.15938136       2.80180893       0.00000000
Si      -2.70917361       2.71277041       0.00048127       0.00000000
Si       0.00260640       2.71110626      -2.71810255       0.00000000
Si      -2.71120986      -2.71867068      -0.00096254       0.00000000
Si      -2.71215468      -0.00386073      -2.71875570       0.00000000
Si       2.72038113       2.71156824       0.00013751       0.00000000
