10
Lattice="16.28999089631971 0.0 0.0 0.0 16.28999089631971 0.0 0.0 0.0 34.376317263855086" Properties=species:S:1:pos:R:3:initial_magmoms:R:1 pbc="T T T"
Si       1.34560287       1.35232154       1.35896533       0.00000000
Si       1.35443205      -1.35982404      -1.36243734       0.00000000
Si      -1.36233270       1.35575710      -1.36113104       0.00000000
Si      -1.37456649      -1.35974259       1.38423194       0.00000000
Si       2.58312159      -0.01872843       2.78836778       0.00000000
Si      -0.09514989       2.67612839       2.70706774       0.00000000
Si       2.71013472      -2.71314837      -0.00182195       0.00000000
Si       2.70949941       2.71680452      -0.00089378       0.00000000
Si      -2.71625976       2.71250396      -0.00151256       0.00000000
Si       2.71194291      -0.00022066      -2.71861819       0.00000000
