10
Lattice="16.28999089631971 0.0 0.0 0.0 16.28999089631971 0.0 0.0 0.0 34.376317263855086" Properties=species:S:1:pos:R:3:initial_magmoms:R:1 pbc="T T T"
Si      -1.50003207      -0.35202690      -1.73590186       0.00000000
Si       0.79594569      -2.22026184       0.38058042       0.00000000
Si       1.27856952       1.90902510      -0.69670521       0.00000000
Si      -1.28322846       0.29357838       2.00950312       0.00000000
Si       1.59470955      -1.72934640       2.49805962       0.00000000
Si       2.96074008       0.12311982       1.89932697       0.00000000
Si      -2.78943444      -2.19745584      -0.01148170       0.00000000
Si       2.37175884       2.38767417       1.32427961       0.00000000
Si      -0.24426855      -0.94636755       3.70167829       0.00000000
Si      -1.05257835      -3.62076201       0.78580868       0.00000000
