10
Lattice="16.28999089631971 0.0 0.0 0.0 16.28999089631971 0.0 0.0 0.0 34.376317263855086" Properties=species:S:1:pos:R:3:initial_magmoms:R:1 pbc="T T T"
Si      -1.37626065      -1.91945070       0.38876199       0.00000000
Si      -0.77242293       1.69705834       1.54088491       0.00000000
Si      -0.78319062       0.97034643      -2.09623462       0.00000000
Si       2.34753561      -0.73392966       0.05060197       0.00000000
Si      -3.27111345      -0.71951301       1.13878490       0.00000000
Si       2.31366870      -2.70782154      -1.16855481       0.00000000
Si      -2.32179741       0.51831522       2.92762632       0.00000000
Si       0.59023557       0.06586047      -3.77369671       0.00000000
Si      -0.57831129       3.35077874      -1.80396701       0.00000000
Si      -0.21769956      -3.51143982       1.71747615       0.00000000
