10
Lattice="16.28999089631971 0.0 0.0 0.0 16.28999089631971 0.0 0.0 0.0 34.376317263855086" Properties=species:S:1:pos:R:3:initial_magmoms:R:1 pbc="T T T"
Si      -0.64953117      -1.34873055      -1.78506002       0.00000000
Si      -1.89485280       1.19993769       0.75002291       0.00000000
Si       1.15856109      -1.59198912       1.32871416       0.00000000
Si       1.37626065       1.91945070      -0.38876199       0.00000000
Si      -0.94553676       2.43776592       2.53886433       0.00000000
Si       2.00363742      -0.41726835       3.19428356       0.00000000
Si       2.87000478      -2.55220317       0.00852533       0.00000000
Si       0.60383772       3.61650904       1.15212292       0.00000000
Si       0.59307003       2.88979713      -2.48499661       0.00000000
Si       1.18944693      -2.13170940      -2.98867869       0.00000000
