10
Lattice="16.28999089631971 0.0 0.0 0.0 16.28999089631971 0.0 0.0 0.0 34.376317263855086" Properties=species:S:1:pos:R:3:initial_magmoms:R:1 pbc="T T T"
Si      -1.92248064      -1.23821919       0.44843931       0.00000000
Si       1.89485280      -1.19993769      -0.75002291       0.00000000
Si       0.94931604       1.23782823       1.78884142       0.00000000
Si      -0.93848319       1.44976113      -1.65332990       0.00000000
Si       2.49869052       2.41657135       0.40210001       0.00000000
Si       3.27111345       0.71951301      -1.13878490       0.00000000
Si      -3.38955804       0.52281126       0.92365778       0.00000000
Si      -1.32807483      -2.96124507       1.85941604       0.00000000
Si       1.91391210      -0.53416539       3.21212488       0.00000000
Si      -3.28059423       1.29362148      -1.38842585       0.00000000
