10
Lattice="16.28999089631971 0.0 0.0 0.0 16.28999089631971 0.0 0.0 0.0 34.376317263855086" Properties=species:S:1:pos:R:3:initial_magmoms:R:1 pbc="T T T"
Si       1.34705024       1.35797838      -1.36397397       0.00000000
Si      -1.35739683       1.35669147       1.35954973       0.00000000
Si       1.35686847      -1.35805837       1.35913722       0.00000000
Si      -1.36192545      -1.36208413      -1.38195623       0.00000000
Si      -2.71500543       2.71094433      -0.00085941       0.00000000
Si       2.71278740       2.71521231      -0.00220009       0.00000000
Si      -2.71358820      -2.71654876      -0.00299074       0.00000000
Si      -0.00030951       2.71407201       2.71614310       0.00000000
Si       2.71461840      -0.00076563       2.71648686       0.00000000
Si      -2.71575477      -0.00077866       2.71614310       0.00000000
