10
Lattice="16.28999089631971 0.0 0.0 0.0 16.28999089631971 0.0 0.0 0.0 34.376317263855086" Properties=species:S:1:pos:R:3:initial_magmoms:R:1 pbc="T T T"
Si      -1.32538698       0.25484076       1.91462444       0.00000000
Si       0.77341662       2.17785897      -0.48068431       0.00000000
Si       1.40519562      -1.79361045       0.67178237       0.00000000
Si      -2.01828213      -1.17429723      -0.61805215       0.00000000
Si       2.52301868      -0.33402645      -1.99925898       0.00000000
Si      -0.63488646      -2.53876881      -1.92672491       0.00000000
Si      -2.59680519      -1.76777451       1.75006491       0.00000000
Si       0.76520646      -1.12303260      -3.37475933       0.00000000
Si      -3.15876132       0.24053814      -2.12999218       0.00000000
Si       0.12382029       0.50459904       3.78280644       0.00000000
