10
Lattice="16.28999089631971 0.0 0.0 0.0 16.28999089631971 0.0 0.0 0.0 34.376317263855086" Properties=species:S:1:pos:R:3:initial_magmoms:R:1 pbc="T T T"
Si       1.32856583       1.34716671       1.36879697       0.00000000
Si       1.35259195      -1.35728280      -1.35508081       0.00000000
Si      -1.36130643       1.35606105      -1.35508081       0.00000000
Si      -1.35288450      -1.35334062       1.37959114       0.00000000
Si       2.47831892      -0.14633307       2.82460044       0.00000000
Si       2.71105415      -0.00004887      -2.71243045       0.00000000
Si      -0.00316606       2.71469592      -2.71215544       0.00000000
Si       2.71250396      -2.71438641       0.00611899       0.00000000
Si      -0.00343442      -2.71490769      -2.71218982       0.00000000
Si       2.71027223       2.71725345       0.00694402       0.00000000
