10
Lattice="16.28999089631971 0.0 0.0 0.0 16.28999089631971 0.0 0.0 0.0 34.376317263855086" Properties=species:S:1:pos:R:3:initial_magmoms:R:1 pbc="T T T"
Si       0.48651714      -0.78757263      -2.20280126       0.00000000
Si       0.00317655      -1.81622097       1.64490770       0.00000000
Si      -0.72568692       2.31671493       0.42942920       0.00000000
Si       2.32571908       0.80021367       0.17765691       0.00000000
Si      -1.98936738      -1.70162082      -0.70815253       0.00000000
Si      -1.40571297       1.87409934       2.63583998       0.00000000
Si       0.53273187      -3.49607835       0.00522520       0.00000000
Si       1.59561432      -2.87961588      -2.06694598       0.00000000
Si      -2.90326896       0.06201603       2.75873538       0.00000000
Si       2.44409363       3.17150010      -0.53479267       0.00000000
