10
Lattice="16.28999089631971 0.0 0.0 0.0 16.28999089631971 0.0 0.0 0.0 34.376317263855086" Properties=species:S:1:pos:R:3:initial_magmoms:R:1 pbc="T T T"
Si      -2.00223648      -1.23154029       0.07143403       0.00000000
Si       0.93849526      -1.30013748      -1.73256736       0.00000000
Si       1.89577060      -0.94749156       1.09388940       0.00000000
Si      -0.27880335       2.22930279      -0.83974515       0.00000000
Si      -3.38172255       0.26283915       1.35497768       0.00000000
Si       3.11431310      -0.37985022      -1.95752610       0.00000000
Si       0.67563819      -3.56177592      -0.87999984       0.00000000
Si       0.95104997      -1.22652297       3.41010821       0.00000000
Si       3.78065555       0.17381430       0.25503804       0.00000000
Si      -2.53084698      -1.49871258      -2.49297192       0.00000000
