10
Lattice="16.28999089631971 0.0 0.0 0.0 16.28999089631971 0.0 0.0 0.0 34.376317263855086" Properties=species:S:1:pos:R:3:initial_magmoms:R:1 pbc="T T T"
Si       1.34882829       1.35159759       1.36150574       0.00000000
Si      -1.38280923       1.26897471      -1.41280555       0.00000000
Si      -1.36624230      -1.36228383       1.35614304       0.00000000
Si       1.39087278      -1.35923760      -1.36561028       0.00000000
Si      -2.11366008      -0.81370179      -2.53225479       0.00000000
Si       2.69395875       2.71502172      -0.02771076       0.00000000
Si       2.70519885      -0.00500103       2.71916478       0.00000000
Si      -0.00884547       2.70855459       2.71868351       0.00000000
Si       2.70181053      -2.73207735       0.00120317       0.00000000
Si      -2.73279411       2.70313002      -0.02046767       0.00000000
