10
Lattice="16.28999089631971 0.0 0.0 0.0 16.28999089631971 0.0 0.0 0.0 34.376317263855086" Properties=species:S:1:pos:R:3:initial_magmoms:R:1 pbc="T T T"
Si      -1.35637056       1.35659862      -1.35765903       0.00000000
Si      -1.35664749      -1.35736425       1.35734965       0.00000000
Si       1.35856061       1.35736425       1.35714339       0.00000000
Si       1.35924479      -1.35557235      -1.36023726       0.00000000
Si      -2.70519885       0.00500103      -2.71916478       0.00000000
Si      -2.71404432       2.71355562      -0.00048127       0.00000000
Si      -2.71264338      -2.71577106      -0.00075628       0.00000000
Si       2.70370736       0.02366937      -2.72491250       0.00000000
Si      -2.71451673      -0.00016290       2.71445866       0.00000000
Si       0.00147524       2.71484253       2.71493993       0.00000000
