10
Lattice="16.28999089631971 0.0 0.0 0.0 16.28999089631971 0.0 0.0 0.0 34.376317263855086" Properties=species:S:1:pos:R:3:initial_magmoms:R:1 pbc="T T T"
Si      -1.12365162      -1.56670704       1.44965152       0.00000000
Si       1.59648516       1.18182321       1.53817747       0.00000000
Si      -1.90804770       1.72735902       0.37153295       0.00000000
Si      -0.74784132      -1.98685872      -1.70571944       0.00000000
Si       1.73657916       1.43158149      -1.92222161       0.00000000
Si      -2.51975349      -0.19732077       2.89669591       0.00000000
Si       0.20561238       2.54106081       2.90378774       0.00000000
Si       3.28296835       2.08757979       0.02272276       0.00000000
Si      -2.39513499       2.48666850      -1.79643859       0.00000000
Si      -1.96621929      -3.39630210       0.09594436       0.00000000
