10
Lattice="16.28999089631971 0.0 0.0 0.0 16.28999089631971 0.0 0.0 0.0 34.376317263855086" Properties=species:S:1:pos:R:3:initial_magmoms:R:1 pbc="T T T"
Si       1.35676152      -1.35716877       1.35704026       0.00000000
Si       1.35723393       1.35654975      -1.35789967       0.00000000
Si      -1.35772263       1.35827649       1.35683400       0.00000000
Si      -1.35799956      -1.35791811      -1.35831218       0.00000000
Si      -0.00066789       2.71360449       2.71339299       0.00000000
Si       2.71358820       0.00003258       2.71487117       0.00000000
Si       2.71463076      -2.71437012      -0.00006875       0.00000000
Si      -2.71490769      -2.71480995      -0.00072190       0.00000000
Si       2.71490769      -0.00040725      -2.71507743       0.00000000
Si      -0.00094482      -2.71542897       2.71466492       0.00000000
