10
Lattice="16.28999089631971 0.0 0.0 0.0 16.28999089631971 0.0 0.0 0.0 34.376317263855086" Properties=species:S:1:pos:R:3:initial_magmoms:R:1 pbc="T T T"
Si      -1.35570267       1.35332433      -1.36061540       0.00000000
Si       1.35855342      -1.36024758      -1.35913722       0.00000000
Si       1.34449515       1.36177884       1.37426280       0.00000000
Si      -1.35441576      -1.35884664       1.37783794       0.00000000
Si       2.52921798      -0.19901493       2.72611224       0.00000000
Si      -2.71013472       2.71314837       0.00182195       0.00000000
Si      -2.71140534      -2.71689507      -0.00003438       0.00000000
Si       0.00180819       2.71292771      -2.71679625       0.00000000
Si      -2.71275741      -0.00200367      -2.71717439       0.00000000
Si       2.71771871      -0.00244350      -2.71648686       0.00000000
