10
Lattice="16.28999089631971 0.0 0.0 0.0 16.28999089631971 0.0 0.0 0.0 34.376317263855086" Properties=species:S:1:pos:R:3:initial_magmoms:R:1 pbc="T T T"
Si       0.62881029       0.75709404       2.16883744       0.00000000
Si       1.99135380      -0.77185278      -1.14648520       0.00000000
Si      -0.55483740       2.08507343      -1.16504842       0.00000000
Si      -2.08252989      -1.55859462       0.23296843       0.00000000
Si      -1.91290212       0.92522820      -2.61456102       0.00000000
Si       0.74332899      -1.96820667      -2.67863851       0.00000000
Si       1.48524468       2.83023179       1.43345885       0.00000000
Si      -0.56055519      -3.33099549      -1.09619262       0.00000000
Si       3.44726441      -1.26250758       0.59295743       0.00000000
Si      -3.54968874      -0.30766923      -1.29846298       0.00000000
