10
Lattice="16.28999089631971 0.0 0.0 0.0 16.28999089631971 0.0 0.0 0.0 34.376317263855086" Properties=species:S:1:pos:R:3:initial_magmoms:R:1 pbc="T T T"
Si       1.24802481       1.19635389       1.53215332       0.00000000
Si       1.55195223      -1.17827199      -1.35123066       0.00000000
Si      -1.18472283       1.56079377      -1.35184943       0.00000000
Si      -1.30388418      -1.36278882       1.58244590       0.00000000
Si       1.07721276      -2.42918109       1.96422949       0.00000000
Si      -0.74332899       1.96820667       2.67863851       0.00000000
Si      -2.59235802      -2.60441262       0.05300831       0.00000000
Si       0.19059300      -2.51726112      -2.72769355       0.00000000
Si      -2.52921798       0.19901493      -2.72611224       0.00000000
Si       2.78582525       2.74214457       0.12605803       0.00000000
