10
Lattice="16.28999089631971 0.0 0.0 0.0 16.28999089631971 0.0 0.0 0.0 34.376317263855086" Properties=species:S:1:pos:R:3:initial_magmoms:R:1 pbc="T T T"
Si      -0.63091170       1.75786597      -1.37838796       0.00000000
Si      -1.39214340      -1.60544466       0.98866344       0.00000000
Si       1.68553512       0.68175279       1.57271739       0.00000000
Si       1.82959573      -0.69240645      -1.40210764       0.00000000
Si       2.72019284       1.29756270      -0.44713301       0.00000000
Si       2.13585588      -1.58928498       2.05862691       0.00000000
Si       1.36019938       3.05446364      -1.52469365       0.00000000
Si       2.74462784      -2.44249002      -0.10196021       0.00000000
Si       0.03637557      -2.47334328       2.75031318       0.00000000
Si      -2.12768577       3.13076600      -0.27927336       0.00000000
