10
Lattice="16.28999089631971 0.0 0.0 0.0 16.28999089631971 0.0 0.0 0.0 34.376317263855086" Properties=species:S:1:pos:R:3:initial_magmoms:R:1 pbc="T T T"
Si      -0.03386691      -1.97389188      -1.21915677       0.00000000
Si       1.39214340       1.60544466      -0.98866344       0.00000000
Si       1.42851897      -0.86789862       1.76164974       0.00000000
Si      -2.34753561       0.73392966      -0.05060197       0.00000000
Si       3.52799928       0.01615968       1.06996347       0.00000000
Si       0.29582640      -0.23390811       3.71876333       0.00000000
Si      -1.16831880      -1.46476422      -3.24925132       0.00000000
Si      -0.85379148      -3.73772421       0.34668535       0.00000000
Si       3.07767852       2.28719745       0.58405396       0.00000000
Si      -3.72379626      -1.18552104       0.33816002       0.00000000
