10
Lattice="16.28999089631971 0.0 0.0 0.0 16.28999089631971 0.0 0.0 0.0 34.376317263855086" Properties=species:S:1:pos:R:3:initial_magmoms:R:1 pbc="T T T"
Si       1.13269257      -0.63399051      -1.95711359       0.00000000
Si      -0.25269048       2.33759871       0.31186212       0.00000000
Si       1.15986429      -0.80198928       1.95243841       0.00000000
Si      -2.01598524      -1.36888128      -0.18631974       0.00000000
Si      -1.68278958       2.29068351       2.19640727       0.00000000
Si       1.84088112      -2.86208784      -1.30647267       0.00000000
Si       2.72907252      -2.29584744       0.94387107       0.00000000
Si      -0.29582640       0.23390811      -3.71876333       0.00000000
Si      -0.37924749      -2.21156298       3.00108855       0.00000000
Si      -1.53477864      -3.21007482       1.22764773       0.00000000
