10
Lattice="16.28999089631971 0.0 0.0 0.0 16.28999089631971 0.0 0.0 0.0 34.376317263855086" Properties=species:S:1:pos:R:3:initial_magmoms:R:1 pbc="T T T"
Si       1.35602637       1.35762489       1.35710901       0.00000000
Si       1.35739798      -1.35726162      -1.35728089       0.00000000
Si      -1.35752992       1.35757602      -1.35762466       0.00000000
Si      -1.35808378      -1.35954711       1.35769341       0.00000000
Si       0.00327152      -2.71253689       2.71432115       0.00000000
Si       0.00343442       2.71490769       2.71218982       0.00000000
Si      -2.71461724       0.00019548      -2.71421802       0.00000000
Si      -0.00035194      -2.71455436      -2.71463054       0.00000000
Si       2.71448856       2.71485882      -0.00024063       0.00000000
Si      -0.00101744       2.71542897      -2.71428678       0.00000000
