10
Lattice="16.28999089631971 0.0 0.0 0.0 16.28999089631971 0.0 0.0 0.0 34.376317263855086" Properties=species:S:1:pos:R:3:initial_magmoms:R:1 pbc="T T T"
Si      -1.35429680      -1.35583299      -1.35779654       0.00000000
Si      -1.35210814       1.36055709       1.35752153       0.00000000
Si       1.35914149      -1.35327546       1.36130292       0.00000000
Si       1.36002115       1.35946566      -1.35772779       0.00000000
Si      -2.71243717      -2.71446786      -0.00072190       0.00000000
Si      -2.71232314       0.00218286      -2.71497430       0.00000000
Si       0.00271880      -2.71298547      -2.71528369       0.00000000
Si      -2.71336570       2.71658556      -0.00003438       0.00000000
Si       0.00288496       2.71691136      -2.71518056       0.00000000
Si       2.71745056       0.00241092      -2.71514618       0.00000000
