10
Lattice="16.28999089631971 0.0 0.0 0.0 16.28999089631971 0.0 0.0 0.0 34.376317263855086" Properties=species:S:1:pos:R:3:initial_magmoms:R:1 pbc="T T T"
Si      -1.97818334       0.01200573      -1.21499724       0.00000000
Si       1.09520928      -1.76751387      -1.05480351       0.00000000
Si       0.17148483      -0.88690905       2.16337161       0.00000000
Si       0.55429983       2.32448526       0.07982185       0.00000000
Si       0.44821935       2.04002928      -2.67506338       0.00000000
Si       2.17943910       0.17878275       2.78407074       0.00000000
Si      -0.78548751      -3.31828929      -0.98474453       0.00000000
Si      -3.61633832       1.18763874      -0.04871127       0.00000000
Si      -2.85691481      -2.17554579      -1.37673790       0.00000000
Si      -1.58776091       0.49117608      -3.47424445       0.00000000
