10
Lattice="16.28999089631971 0.0 0.0 0.0 16.28999089631971 0.0 0.0 0.0 34.376317263855086" Properties=species:S:1:pos:R:3:initial_magmoms:R:1 pbc="T T T"
Si      -1.09520928       1.76751387       1.05480351       0.00000000
Si       0.52142661       0.39789954      -2.27829170       0.00000000
Si       2.08313262      -0.70271802       0.93641141       0.00000000
Si      -1.88069679      -1.55077542       0.07005897       0.00000000
Si      -0.92372445       0.88060482       3.21817512       0.00000000
Si      -3.07339262       1.77951960      -0.16019373       0.00000000
Si       2.14364997      -1.30360725      -2.73883148       0.00000000
Si       2.77542504      -2.40951906      -0.55782481       0.00000000
Si       3.62885814       1.08893763       0.74046629       0.00000000
Si      -3.95212409      -0.40803192      -0.32193439       0.00000000
