10
Lattice="16.28999089631971 0.0 0.0 0.0 16.28999089631971 0.0 0.0 0.0 34.376317263855086" Properties=species:S:1:pos:R:3:initial_magmoms:R:1 pbc="T T T"
Si      -1.68648319      -0.90575658       1.51545471       0.00000000
Si       1.79127609      -1.71830178       0.06713699       0.00000000
Si       0.98119394       1.88988435       1.35503753       0.00000000
Si      -1.54638919      -0.65599830      -1.94494437       0.00000000
Si      -0.37554544      -2.27859633       2.88226816       0.00000000
Si       2.33155023       0.47214936       2.87531726       0.00000000
Si      -3.28296835      -2.08757979      -0.02272276       0.00000000
Si       1.01650577      -3.55431510       1.44259406       0.00000000
Si       2.80839111      -1.85969898      -2.17303136       0.00000000
Si       3.60559113      -0.91199565       1.51158393       0.00000000
