10
Lattice="16.28999089631971 0.0 0.0 0.0 16.28999089631971 0.0 0.0 0.0 34.376317263855086" Properties=species:S:1:pos:R:3:initial_magmoms:R:1 pbc="T T T"
Si       0.35142417       2.25568349       0.57707556       0.00000000
Si       2.13112296      -1.03384485       0.50584779       0.00000000
Si      -2.19937317      -0.77144553       0.81031900       0.00000000
Si       1.26052020       0.85623076      -2.15168365       0.00000000
Si      -1.23429330      -1.67736501      -1.83624639       0.00000000
Si      -0.66774339      -3.31110540      -0.31083083       0.00000000
Si       2.11924755       2.69815247      -0.94198037       0.00000000
Si       1.31274594      -2.72360655       1.97117351       0.00000000
Si      -1.81794771       3.10362686       0.86628368       0.00000000
Si      -1.72853190      -2.94161562       1.72170444       0.00000000
