10
Lattice="16.28999089631971 0.0 0.0 0.0 16.28999089631971 0.0 0.0 0.0 34.376317263855086" Properties=species:S:1:pos:R:3:initial_magmoms:R:1 pbc="T T T"
Si       1.35470898      -1.35951127      -1.36123417       0.00000000
Si      -1.35991201       1.35710361      -1.36119980       0.00000000
Si       1.35016407       1.36640520       1.37835359       0.00000000
Si      -1.36337526      -1.38192794       1.37092830       0.00000000
Si      -0.23418504       2.56805334       2.81848145       0.00000000
Si       2.62723491      -0.08066808       2.78279881       0.00000000
Si      -2.71266686      -2.71305817      -0.00398766       0.00000000
Si      -2.71250396       2.71438641      -0.00611899       0.00000000
Si       2.71393029       2.71650411      -0.00278448       0.00000000
Si       2.71700910      -2.71389189       0.00079066       0.00000000
