10
Lattice="16.28999089631971 0.0 0.0 0.0 16.28999089631971 0.0 0.0 0.0 34.376317263855086" Properties=species:S:1:pos:R:3:initial_magmoms:R:1 pbc="T T T"
Si      -1.63147771      -0.74948661       1.62025987       0.00000000
Si      -1.89854249       1.36080374      -0.64837208       0.00000000
Si       0.47252403      -2.35673946      -0.48003116       0.00000000
Si       1.87180245       1.46300883      -0.67556376       0.00000000
Si       0.00250866      -0.08506638       3.48672306       0.00000000
Si      -1.09481832       2.20224903      -2.70118939       0.00000000
Si       2.18458674      -2.71103067       1.15006034       0.00000000
Si       2.60185509       0.56353626       2.65687829       0.00000000
Si       1.15641081      -2.38301523      -2.70118939       0.00000000
Si      -1.77818056       3.23228528       0.89505667       0.00000000
