10
Lattice="16.28999089631971 0.0 0.0 0.0 16.28999089631971 0.0 0.0 0.0 34.376317263855086" Properties=species:S:1:pos:R:3:initial_magmoms:R:1 pbc="T T T"
Si       0.68388678      -0.02627577      -2.22115823       0.00000000
Si       1.71206271      -0.35429121       1.63009150       0.00000000
Si      -1.63253330      -1.80196722       0.05764912       0.00000000
Si      -0.47252403       2.35673946       0.48003116       0.00000000
Si      -2.10400174       1.60725285       2.10029103       0.00000000
Si      -3.20174153      -0.30810906       1.06621645       0.00000000
Si      -1.12943294       0.74394801      -3.53502181       0.00000000
Si       2.62435158       1.26501624      -2.59314457       0.00000000
Si       1.10447829      -2.25495954      -2.99136005       0.00000000
Si       3.30229251       1.38658851       1.55741992       0.00000000
