10
Lattice="16.28999089631971 0.0 0.0 0.0 16.28999089631971 0.0 0.0 0.0 34.376317263855086" Properties=species:S:1:pos:R:3:initial_magmoms:R:1 pbc="T T T"
Si      -0.52022115       1.72138059      -1.43486828       0.00000000
Si       0.98982927      -1.47023766      -1.49953017       0.00000000
Si       1.45940481       1.22214096       1.39883986       0.00000000
Si      -1.34626750      -1.46232072       1.29192258       0.00000000
Si      -2.44091315       2.55898015      -0.08607835       0.00000000
Si       2.33629551      -2.76369624       0.02609164       0.00000000
Si       3.08231235       2.11794435      -0.07267158       0.00000000
Si       0.02482596       2.53508756       2.80008809       0.00000000
Si       2.07912528       2.36998323      -2.26471305       0.00000000
Si      -2.71085867      -0.18370233       2.79023927       0.00000000
