10
Lattice="16.28999089631971 0.0 0.0 0.0 16.28999089631971 0.0 0.0 0.0 34.5300574570662" Properties=species:S:1:pos:R:3:initial_magmoms:R:1 pbc="T T T"
Si      -0.12372679       0.34272531      -2.32984787       0.00000000
Si       0.63824383       2.11751496       0.94412136       0.00000000
Si      -2.37262125      -0.38310822       0.25852668       0.00000000
Si       1.43774725      -1.60738317       1.12032834       0.00000000
Si      -3.05276133       1.35057362       1.64121455       0.00000000
Si      -2.64715662      -2.18147535       1.70319604       0.00000000
Si      -1.08290937      -1.55600451      -3.36077784       0.00000000
Si       0.72376796      -1.93665294       3.38004562       0.00000000
Si       0.41943329       2.12764734       3.34351280       0.00000000
Si      -0.75883611       3.90818996       0.18770550       0.00000000
