10
Lattice="16.28999089631971 0.0 0.0 0.0 16.28999089631971 0.0 0.0 0.0 34.5300574570662" Properties=species:S:1:pos:R:3:initial_magmoms:R:1 pbc="T T T"
Si      -1.12469418       1.57011165      -1.32895216       0.00000000
Si       1.34060184       1.36521603       1.35969083       0.00000000
Si      -1.38087072      -1.34438275       1.35710108       0.00000000
Si       1.15857738      -1.43958477      -1.50134702       0.00000000
Si      -2.18779587      -0.25492221      -2.50753964       0.00000000
Si       2.21592870       0.19086993      -2.81293888       0.00000000
Si      -0.80684370      -2.28950574      -2.77744196       0.00000000
Si       2.66714541       2.72640843       0.01791766       0.00000000
Si       2.67786423      -2.72117024      -0.03905352       0.00000000
Si       2.69444745       0.01345554       2.71416762       0.00000000
