10
Lattice="16.28999089631971 0.0 0.0 0.0 16.28999089631971 0.0 0.0 0.0 34.5300574570662" Properties=species:S:1:pos:R:3:initial_magmoms:R:1 pbc="T T T"
Si       1.37186235      -1.43456745       1.32098262       0.00000000
Si      -1.75475880       1.26806247       1.01656546       0.00000000
Si      -0.32303070      -0.92849742      -2.22422036       0.00000000
Si       1.75272255       1.83031182      -1.01045364       0.00000000
Si      -1.77021801       3.14129844      -0.40721320       0.00000000
Si      -0.12926115       3.01511610      -2.08402825       0.00000000
Si      -0.82028295       2.18799135       2.95235609       0.00000000
Si      -0.91608444       1.01977029      -3.56833813       0.00000000
Si       3.30400296      -1.98751032      -0.03598034       0.00000000
Si       2.20125141      -0.12670362       3.17859716       0.00000000
