10
Lattice="16.28999089631971 0.0 0.0 0.0 16.28999089631971 0.0 0.0 0.0 34.5300574570662" Properties=species:S:1:pos:R:3:initial_magmoms:R:1 pbc="T T T"
Si      -2.13081345      -0.13385330      -0.90627639       0.00000000
Si       1.33255458      -0.92710041      -1.69000555       0.00000000
Si       0.42674913       2.20351898       0.68542202       0.00000000
Si       0.06561612      -1.50466236       1.84611602       0.00000000
Si       1.15766514      -3.13349946      -0.90741589       0.00000000
Si       0.54384165       0.08797415       3.49033469       0.00000000
Si       1.80998190       1.77057965       2.48478432       0.00000000
Si       1.28519955       3.16909244      -1.24784791       0.00000000
Si      -3.55534137      -0.05891441       0.94353435       0.00000000
Si      -2.24635842      -2.22127575      -1.96134289       0.00000000
