10
Lattice="16.28999089631971 0.0 0.0 0.0 16.28999089631971 0.0 0.0 0.0 34.5300574570662" Properties=species:S:1:pos:R:3:initial_magmoms:R:1 pbc="T T T"
Si       1.39958793      -1.27003356       1.40891691       0.00000000
Si      -1.26395739       1.43697348       1.40408961       0.00000000
Si       1.78412967       0.99843039      -1.27978444       0.00000000
Si      -1.73219715      -0.37629900      -1.72525182       0.00000000
Si      -0.07439643       1.67594778      -2.76108506       0.00000000
Si      -2.39225166      -2.42633034       0.06204709       0.00000000
Si       2.63720439      -2.66797620       0.03552454       0.00000000
Si      -2.45405592       2.90678760       0.07540678       0.00000000
Si       0.07304436      -2.63122596       2.75069009       0.00000000
Si      -2.64816756       0.08856873       2.74547604       0.00000000
