10
Lattice="16.28999089631971 0.0 0.0 0.0 16.28999089631971 0.0 0.0 0.0 34.5300574570662" Properties=species:S:1:pos:R:3:initial_magmoms:R:1 pbc="T T T"
Si      -1.13451705      -1.90705957       0.75341174       0.00000000
Si       0.68256729       1.34211844       1.79856811       0.00000000
Si      -0.91851165       0.72669853      -2.16441427       0.00000000
Si       2.40916068      -1.35390735      -2.06814442       0.00000000
Si      -1.40292738       2.72893501       1.74345811       0.00000000
Si       0.79421895      -0.25319221      -3.62310283       0.00000000
Si       0.46879362      -3.40384993       1.72678008       0.00000000
Si       2.10738843      -3.24919267      -0.02289344       0.00000000
Si      -1.87977478      -3.06185767      -1.45192067       0.00000000
Si      -2.94492901      -0.58497553      -2.51669011       0.00000000
