10
Lattice="16.28999089631971 0.0 0.0 0.0 16.28999089631971 0.0 0.0 0.0 34.5300574570662" Properties=species:S:1:pos:R:3:initial_magmoms:R:1 pbc="T T T"
Si      -1.35588186      -1.35490446      -1.35841322       0.00000000
Si       1.36099692      -1.35316143       1.35786074       0.00000000
Si      -1.35672894       1.36267479       1.35685937       0.00000000
Si       1.35861858       1.35985662      -1.35827510       0.00000000
Si      -2.71288773      -2.71185820      -0.00096684       0.00000000
Si       0.00174303      -2.71228500      -2.71530712       0.00000000
Si       2.71586880      -2.71393192      -0.00034530       0.00000000
Si      -2.71352304       0.00249237      -2.71641208       0.00000000
Si      -2.71363707       2.71728603       0.00086325       0.00000000
Si       2.71393029       2.71740006      -0.00034530       0.00000000
