10
Lattice="16.28999089631971 0.0 0.0 0.0 16.28999089631971 0.0 0.0 0.0 34.5300574570662" Properties=species:S:1:pos:R:3:initial_magmoms:R:1 pbc="T T T"
Si       1.66508235      -0.02143764      -1.66355551       0.00000000
Si      -2.04402033       1.01962368      -0.65444854       0.00000000
Si      -0.47589606      -2.30391099       0.40130855       0.00000000
Si       1.10866482       1.39608558       1.65109015       0.00000000
Si       3.47617197      -0.61484976      -0.15821681       0.00000000
Si       2.95060770      -0.07944633       2.05094844       0.00000000
Si       1.34566803       2.18211066      -2.53519824       0.00000000
Si      -2.41404768      -2.65051332      -0.93676645       0.00000000
Si      -1.48996485      -2.21123718       2.64369174       0.00000000
Si      -1.77942186       3.29385429      -0.45569342       0.00000000
