10
Lattice="16.28999089631971 0.0 0.0 0.0 16.28999089631971 0.0 0.0 0.0 34.5300574570662" Properties=species:S:1:pos:R:3:initial_magmoms:R:1 pbc="T T T"
Si       2.12879349      -0.80006706      -0.82727158       0.00000000
Si      -1.60490709      -0.98813511      -1.55174712       0.00000000
Si       0.16863408       2.40855795      -0.38086675       0.00000000
Si      -0.26495685      -0.15912072       2.44780261       0.00000000
Si       2.83566546       1.14365574      -2.14449042       0.00000000
Si      -0.49176252      -3.66591789       0.70727956       0.00000000
Si       0.99372258       2.61918765      -2.54434871       0.00000000
Si      -3.55312593       0.49603050      -1.50526964       0.00000000
Si      -2.18906649      -3.22317198      -0.83790684       0.00000000
Si      -0.59083830      -1.08080892      -3.79413030       0.00000000
