10
Lattice="16.28999089631971 0.0 0.0 0.0 16.28999089631971 0.0 0.0 0.0 34.5300574570662" Properties=species:S:1:pos:R:3:initial_magmoms:R:1 pbc="T T T"
Si       1.33773480       1.33711578      -1.39056072       0.00000000
Si      -1.35954711       1.35364235       1.36231512       0.00000000
Si       1.35501849      -1.36296801       1.36076126       0.00000000
Si      -1.34762283      -1.38479661      -1.39693152       0.00000000
Si       2.57688252      -0.24640254      -2.80131808       0.00000000
Si       2.71471221       2.71082934       0.00069060       0.00000000
Si      -0.00068418       2.71155914       2.71979603       0.00000000
Si       2.71430496      -0.00413766       2.71917448       0.00000000
Si      -2.71785618      -2.71621089       0.00151932       0.00000000
Si      -2.72100015       2.71390327       0.00559387       0.00000000
