10
Lattice="16.28999089631971 0.0 0.0 0.0 16.28999089631971 0.0 0.0 0.0 34.5300574570662" Properties=species:S:1:pos:R:3:initial_magmoms:R:1 pbc="T T T"
Si      -2.08202231      -1.04999801       0.17227055       0.00000000
Si       1.89680108      -0.93046851       1.06445868       0.00000000
Si      -0.31840597       2.00122324       1.24159797       0.00000000
Si       0.21881054      -0.01013238      -2.39939144       0.00000000
Si       3.32132900      -1.00540740      -0.78535207       0.00000000
Si       2.54421455       0.41311114      -2.46285772       0.00000000
Si      -3.21895028       0.17459785       1.82173779       0.00000000
Si      -2.64609614       2.35701313       1.07467958       0.00000000
Si       2.69361014       0.73607668       2.58478343       0.00000000
Si      -1.17826940       1.78054261      -3.15580730       0.00000000
