10
Lattice="16.28999089631971 0.0 0.0 0.0 16.28999089631971 0.0 0.0 0.0 34.5300574570662" Properties=species:S:1:pos:R:3:initial_magmoms:R:1 pbc="T T T"
Si      -1.63652598      -1.03516434       1.32557512       0.00000000
Si       1.27591425      -1.33423245      -1.46870228       0.00000000
Si       1.39921326       1.27576764       1.43589871       0.00000000
Si      -1.42112331       1.35643572      -1.46794262       0.00000000
Si       0.31112271      -1.80485055       2.46634526       0.00000000
Si       2.56955202       2.66729202      -0.06391517       0.00000000
Si       2.77664679      -0.53032095       2.48285064       0.00000000
Si       2.59581150      -2.73914721      -0.14516444       0.00000000
Si      -2.78541081      -2.65153959       0.04820399       0.00000000
Si       2.62650186       0.02922426      -2.82628678       0.00000000
