10
Lattice="16.28999089631971 0.0 0.0 0.0 16.28999089631971 0.0 0.0 0.0 34.5300574570662" Properties=species:S:1:pos:R:3:initial_magmoms:R:1 pbc="T T T"
Si       2.07801756      -0.51660477       1.05116460       0.00000000
Si      -1.63859481      -0.15465726       1.74967352       0.00000000
Si      -0.15983748      -2.44314162      -0.15379696       0.00000000
Si       0.30177225       1.89528532      -2.04525098       0.00000000
Si       1.31483106      -2.80334610       1.64805150       0.00000000
Si      -3.24190548       1.34213310       0.77630519       0.00000000
Si       0.44070966      -2.71528236      -2.40464002       0.00000000
Si       1.52880021       0.36533583      -3.43508657       0.00000000
Si      -0.33557400      -0.31889304       3.80276282       0.00000000
Si      -2.10738843       3.24919267       0.02289344       0.00000000
