10
Lattice="16.28999089631971 0.0 0.0 0.0 16.28999089631971 0.0 0.0 0.0 34.5300574570662" Properties=species:S:1:pos:R:3:initial_magmoms:R:1 pbc="T T T"
Si      -1.23761646       1.39794264       1.37339237       0.00000000
Si       0.89335989       1.83492189      -1.25641275       0.00000000
Si       1.50540777      -1.31766552       1.33588925       0.00000000
Si      -1.68883317      -1.13759586      -1.45746417       0.00000000
Si      -2.56416003       0.03675024       2.71516554       0.00000000
Si      -2.63720439       2.66797620      -0.03552454       0.00000000
Si       0.15007977      -2.67592246       2.70767252       0.00000000
Si       0.14792949       2.75595849       2.70939902       0.00000000
Si       2.86902738      -2.62058207      -0.16116223       0.00000000
Si      -2.74618449      -2.76805056      -0.14587231       0.00000000
