10
Lattice="16.28999089631971 0.0 0.0 0.0 16.28999089631971 0.0 0.0 0.0 34.5300574570662" Properties=species:S:1:pos:R:3:initial_magmoms:R:1 pbc="T T T"
Si       0.63755802      -1.87765219      -1.25506470       0.00000000
Si      -2.30552370       0.11679930       0.42917432       0.00000000
Si       0.08842212       1.54823418      -1.80181394       0.00000000
Si       1.40673924      -0.00742824       1.91755875       0.00000000
Si      -1.20277215      -1.74400740      -2.78540317       0.00000000
Si      -3.13491276      -1.19106453      -1.42844022       0.00000000
Si       2.92780170      -1.31488808      -1.77916220       0.00000000
Si      -0.57262608       0.34492446      -3.71198325       0.00000000
Si      -2.98294335       2.32813422       0.17596527       0.00000000
Si      -2.69490357      -0.21501171       2.72911915       0.00000000
