10
Lattice="16.28999089631971 0.0 0.0 0.0 16.28999089631971 0.0 0.0 0.0 34.5300574570662" Properties=species:S:1:pos:R:3:initial_magmoms:R:1 pbc="T T T"
Si      -0.22988448       0.13923063       2.29300428       0.00000000
Si      -1.80719631       0.52802406      -1.38251521       0.00000000
Si       1.47929490       1.77538194      -0.49664609       0.00000000
Si       1.07303859      -1.88740827      -1.02250463       0.00000000
Si      -0.22937949       0.93931398      -3.24928022       0.00000000
Si       2.13389226       0.91189791      -2.57038438       0.00000000
Si      -2.40119487      -1.72318878      -1.93737902       0.00000000
Si       1.82579949      -0.86649768       3.10301082       0.00000000
Si       3.15345078      -1.14645762      -1.77374098       0.00000000
Si      -0.78698619       2.48494176       2.76402905       0.00000000
