10
Lattice="16.28999089631971 0.0 0.0 0.0 16.28999089631971 0.0 0.0 0.0 34.5300574570662" Properties=species:S:1:pos:R:3:initial_magmoms:R:1 pbc="T T T"
Si       1.02174138       1.56950892      -1.34641298       0.00000000
Si       1.44184419      -1.25348292       1.31680793       0.00000000
Si      -1.30064247       1.44275643       1.28695668       0.00000000
Si      -0.91991259      -1.70914680      -1.37151013       0.00000000
Si       2.18134503      -0.08952984      -2.79445493       0.00000000
Si      -2.67936291       2.52952749      -0.36832542       0.00000000
Si       0.08109162      -2.61959490       2.65319787       0.00000000
Si      -2.62902681       0.09242946       2.65568403       0.00000000
Si       2.70814734      -2.59465491      -0.10134578       0.00000000
Si       2.68006338       2.72883564      -0.09854193       0.00000000
