10
Lattice="16.28999089631971 0.0 0.0 0.0 16.28999089631971 0.0 0.0 0.0 34.5300574570662" Properties=species:S:1:pos:R:3:initial_magmoms:R:1 pbc="T T T"
Si       1.35467640      -1.35946566       1.35723920       0.00000000
Si       1.35332433       1.35746199      -1.36258100       0.00000000
Si      -1.36172997       1.35539316       1.35651407       0.00000000
Si      -1.38592062      -1.36656810      -1.36807128       0.00000000
Si      -0.13986594       2.47195863      -2.80556528       0.00000000
Si       2.59478523      -0.08048889      -2.75356989       0.00000000
Si       2.71173114      -0.00030951       2.71492728       0.00000000
Si       2.71360449       2.71355562      -0.00428173       0.00000000
Si      -0.00244350       2.71422351       2.71492728       0.00000000
Si      -0.00236205      -2.71564074       2.71541071       0.00000000
