10
Lattice="16.28999089631971 0.0 0.0 0.0 16.28999089631971 0.0 0.0 0.0 34.5300574570662" Properties=species:S:1:pos:R:3:initial_magmoms:R:1 pbc="T T T"
Si       1.35671265       1.35764118       1.35734279       0.00000000
Si      -1.35733167       1.35728280      -1.35727373       0.00000000
Si       1.35775521      -1.35770634      -1.35710108       0.00000000
Si      -1.35801585      -1.35886293       1.35913835       0.00000000
Si       2.71041165       0.00302994       2.71482369       0.00000000
Si      -0.00122175      -2.71391400      -2.71351155       0.00000000
Si      -0.00161271       2.71332756      -2.71599772       0.00000000
Si      -2.71492398       2.71472850       0.00044889       0.00000000
Si       2.71482624       2.71505430      -0.00013812       0.00000000
Si       2.71479366      -0.00153126      -2.71527259       0.00000000
