10
Lattice="16.28999089631971 0.0 0.0 0.0 16.28999089631971 0.0 0.0 0.0 34.5300574570662" Properties=species:S:1:pos:R:3:initial_magmoms:R:1 pbc="T T T"
Si       1.32366024       1.36479249       1.32813034       0.00000000
Si       1.34998488      -1.35731538      -1.35713561       0.00000000
Si      -1.36290285       1.35627282      -1.35599611       0.00000000
Si      -1.35874890      -1.37674935       1.37667963       0.00000000
Si      -0.03469770       2.66116698       2.68284884       0.00000000
Si       2.69913897       0.07895763       2.66157832       0.00000000
Si       2.70552465       2.71816569      -0.00031077       0.00000000
Si       2.71019988      -2.71433754       0.00811457       0.00000000
Si       2.71023246       0.00011403      -2.71475463       0.00000000
Si      -0.00532683      -2.71485882      -2.71506541       0.00000000
