10
Lattice="16.28999089631971 0.0 0.0 0.0 16.28999089631971 0.0 0.0 0.0 34.5300574570662" Properties=species:S:1:pos:R:3:initial_magmoms:R:1 pbc="T T T"
Si       1.37547873      -1.28583486       1.33344797       0.00000000
Si      -1.35835794       1.29637449       1.35471850       0.00000000
Si      -1.32366024      -1.36479249      -1.32813034       0.00000000
Si       1.38186441       1.35337320      -1.32844111       0.00000000
Si       0.40378023       2.33852724       2.52535716       0.00000000
Si       2.12136525       0.43359093       2.81509904       0.00000000
Si      -0.09135432      -2.70145215       2.59503886       0.00000000
Si      -2.68656309      -0.00851967      -2.68412646       0.00000000
Si      -2.67825519       2.70128925       0.03118066       0.00000000
Si       0.02816541       2.70798444      -2.68592202       0.00000000
