10
Lattice="16.28999089631971 0.0 0.0 0.0 16.28999089631971 0.0 0.0 0.0 34.5300574570662" Properties=species:S:1:pos:R:3:initial_magmoms:R:1 pbc="T T T"
Si      -1.25173989      -2.02395105      -0.34264195       0.00000000
Si      -0.80865189       1.54523682       1.69155940       0.00000000
Si       2.47062285      -0.09005112      -0.04160874       0.00000000
Si      -0.68276277       0.49806675      -2.33668482       0.00000000
Si       2.32070598       1.90801512      -1.32008483       0.00000000
Si       1.43966133       1.02724740      -3.31019128       0.00000000
Si       0.24490386      -3.49109361      -1.52830120       0.00000000
Si      -2.90427894       0.71509842       2.39835554       0.00000000
Si      -3.00498372      -1.52471142      -1.92950616       0.00000000
Si      -0.80413956       3.78261945       0.89218812       0.00000000
