10
Lattice="16.28999089631971 0.0 0.0 0.0 16.28999089631971 0.0 0.0 0.0 34.5300574570662" Properties=species:S:1:pos:R:3:initial_magmoms:R:1 pbc="T T T"
Si      -1.66508235       0.02143764       1.66355551       0.00000000
Si       0.16720056      -1.54914642      -1.78720771       0.00000000
Si      -0.31941432       2.20354830      -0.87164273       0.00000000
Si       1.81108962      -0.59341212       1.50533870       0.00000000
Si      -0.55641753       1.41752322       3.31464566       0.00000000
Si      -2.14097841      -2.28247335       2.06486406       0.00000000
Si       1.13626008      -3.54735927      -0.98158649       0.00000000
Si       1.77621273       3.03368670      -1.57843887       0.00000000
Si       1.33312473      -0.53550117      -3.61264022       0.00000000
Si       3.61716192       0.82295451       1.17581817       0.00000000
