10
Lattice="16.28999089631971 0.0 0.0 0.0 16.28999089631971 0.0 0.0 0.0 34.5300574570662" Properties=species:S:1:pos:R:3:initial_magmoms:R:1 pbc="T T T"
Si       0.50031477      -2.29698841      -0.14896275       0.00000000
Si       1.82689159       0.18937451      -1.49366753       0.00000000
Si       0.25058907       0.65444912       2.32763794       0.00000000
Si      -0.26441928       1.05242197      -2.58043264       0.00000000
Si      -1.35767376       2.56765261      -1.03866471       0.00000000
Si      -2.03965461       0.09168501       2.85173545       0.00000000
Si       1.62985818      -1.19501878       3.01278373       0.00000000
Si       2.89204582      -2.28750763      -0.42889808       0.00000000
Si       0.67067559      -3.09374860       1.98185376       0.00000000
Si      -2.54093049      -2.05583125      -2.26638159       0.00000000
