10
Lattice="16.28999089631971 0.0 0.0 0.0 16.28999089631971 0.0 0.0 0.0 34.5300574570662" Properties=species:S:1:pos:R:3:initial_magmoms:R:1 pbc="T T T"
Si       1.13692797      -1.22459586      -1.64946724       0.00000000
Si      -2.23528122       0.11583819      -0.75392970       0.00000000
Si       0.57285414       2.18241528      -0.74705821       0.00000000
Si       0.78099147      -0.87042683       2.15312294       0.00000000
Si       2.90054431       1.82662539      -0.58013982       0.00000000
Si      -2.16950220      -1.57882258      -2.31165052       0.00000000
Si      -0.25324434      -0.95167157      -3.52403604       0.00000000
Si      -2.67164145       0.63336660       2.46969468       0.00000000
Si       3.21895028      -0.17459785      -1.82173779       0.00000000
Si      -0.11557755       3.64043544       0.95050942       0.00000000
