10
Lattice="16.28999089631971 0.0 0.0 0.0 16.28999089631971 0.0 0.0 0.0 34.5300574570662" Properties=species:S:1:pos:R:3:initial_magmoms:R:1 pbc="T T T"
Si      -1.35234693       1.35659862      -1.35868946       0.00000000
Si      -1.35503478      -1.35692442       1.35720467       0.00000000
Si       1.35915615       1.35759231       1.35682484       0.00000000
Si       1.35729909      -1.35635427      -1.36328196       0.00000000
Si      -2.71099809       0.01018125      -2.69594265       0.00000000
Si      -2.71288773       2.71352304      -0.00048342       0.00000000
Si      -2.71261080      -2.71467963       0.00027624       0.00000000
Si      -2.71256193       0.00003258       2.71516900       0.00000000
Si       0.00252495      -2.71445157       2.71534165       0.00000000
Si       0.00224802       2.71523349       2.71475463       0.00000000
