10
Lattice="16.28999089631971 0.0 0.0 0.0 16.28999089631971 0.0 0.0 0.0 34.5300574570662" Properties=species:S:1:pos:R:3:initial_magmoms:R:1 pbc="T T T"
Si      -2.11524021      -1.05860565      -0.02928151       0.00000000
Si       0.04318479       0.10888236      -2.47304410       0.00000000
Si      -0.78734457       2.15741502       0.94902463       0.00000000
Si       1.54867401      -1.77450228       0.84046207       0.00000000
Si      -2.20366233      -2.60683983       1.77253243       0.00000000
Si      -3.04075656       2.51848287       0.09633891       0.00000000
Si       0.72413937      -3.92172791      -0.00662977       0.00000000
Si       3.84244352      -1.07289198       0.43221297       0.00000000
Si      -0.88412346      -2.00852442      -3.37293243       0.00000000
Si       2.27413028       1.03812912      -3.15629073       0.00000000
