10
Lattice="16.28999089631971 0.0 0.0 0.0 16.28999089631971 0.0 0.0 0.0 34.5300574570662" Properties=species:S:1:pos:R:3:initial_magmoms:R:1 pbc="T T T"
Si      -1.63753596       1.59739740      -0.85955720       0.00000000
Si      -0.04318479      -0.10888236       2.47304410       0.00000000
Si      -0.92730825      -2.11740678      -0.89988833       0.00000000
Si       2.23094549       0.92924676      -0.68324663       0.00000000
Si       0.47557026       1.52070408      -2.27863977       0.00000000
Si      -2.15842500      -1.16748801       2.44376259       0.00000000
Si      -2.30382954      -1.24660854      -2.62780790       0.00000000
Si      -2.81947320      -2.37079773       0.53359328       0.00000000
Si      -3.55571604       0.17257626      -1.26331739       0.00000000
Si      -0.73015038       0.12121389      -3.81363980       0.00000000
