10
Lattice="16.28999089631971 0.0 0.0 0.0 16.28999089631971 0.0 0.0 0.0 34.5300574570662" Properties=species:S:1:pos:R:3:initial_magmoms:R:1 pbc="T T T"
Si       1.27454589      -1.30122891       1.44283926       0.00000000
Si      -1.32574536      -1.35578412      -1.36138281       0.00000000
Si       1.38909717       1.35900954      -1.35085113       0.00000000
Si      -1.42944750       1.27690794       1.43655478       0.00000000
Si       2.09868861       0.62475408       2.71054197       0.00000000
Si       0.27316701       2.35649511       2.63612965       0.00000000
Si      -2.67165774      -2.70503595       0.01129134       0.00000000
Si      -2.68268607       0.00029322      -2.71416762       0.00000000
Si      -2.67902082       2.72593602       0.01640179       0.00000000
Si       0.03171663      -2.71283886      -2.71451292       0.00000000
