10
Lattice="16.28999089631971 0.0 0.0 0.0 16.28999089631971 0.0 0.0 0.0 34.5300574570662" Properties=species:S:1:pos:R:3:initial_magmoms:R:1 pbc="T T T"
Si      -1.24253019       2.01201048       0.21032270       0.00000000
Si      -0.86093694      -1.93666923      -1.08621262       0.00000000
Si       0.96640099       0.05874174       2.20926884       0.00000000
Si       1.79437282       0.19240119      -1.60216103       0.00000000
Si       0.66253059       3.33492138      -0.20427993       0.00000000
Si       3.31872586      -0.99261486      -0.19678691       0.00000000
Si      -0.00107351      -1.71598860       3.31119265       0.00000000
Si       0.53614300      -3.72734422      -0.32979676       0.00000000
Si       2.16119104       2.51445924      -1.82605405       0.00000000
Si       3.29227090      -0.03795570       1.90972042       0.00000000
