10
Lattice="16.28999089631971 0.0 0.0 0.0 16.28999089631971 0.0 0.0 0.0 34.5300574570662" Properties=species:S:1:pos:R:3:initial_magmoms:R:1 pbc="T T T"
Si      -0.96747450      -1.77473034       1.10192381       0.00000000
Si       2.32586991      -0.09669744      -0.29954842       0.00000000
Si      -0.56776351       2.04025734       1.04305003       0.00000000
Si      -0.96640099      -0.05874174      -2.20926884       0.00000000
Si       0.96075162       3.10567221      -0.39958205       0.00000000
Si       2.35232487      -1.05135660      -2.40605575       0.00000000
Si      -2.20893119       1.95326874      -1.99894614       0.00000000
Si      -3.29516468      -1.41894045       0.93500542       0.00000000
Si       3.04469874       2.10237111      -0.87012340       0.00000000
Si      -0.64906853      -3.77595358      -0.13967416       0.00000000
