10
Lattice="16.28999089631971 0.0 0.0 0.0 16.28999089631971 0.0 0.0 0.0 34.5300574570662" Properties=species:S:1:pos:R:3:initial_magmoms:R:1 pbc="T T T"
Si       1.14888483       1.61637525       1.27737113       0.00000000
Si      -1.36105068       1.32535440      -1.50257629       0.00000000
Si       1.31158935      -1.37785707      -1.51711345       0.00000000
Si      -2.02391032      -0.76763367       1.19087329       0.00000000
Si       2.64031578      -2.74269843      -0.20804371       0.00000000
Si       2.78541081       2.65153959      -0.04820399       0.00000000
Si      -2.79667439       2.66111811      -0.15631766       0.00000000
Si      -0.55750896       1.40972031       3.61156979       0.00000000
Si      -2.84805305      -2.69361666      -0.07682942       0.00000000
Si      -0.01671354       2.67990048      -2.87804737       0.00000000
