10
Lattice="16.28999089631971 0.0 0.0 0.0 16.28999089631971 0.0 0.0 0.0 34.5300574570662" Properties=species:S:1:pos:R:3:initial_magmoms:R:1 pbc="T T T"
Si      -0.08094501       1.32522408      -2.03944992       0.00000000
Si      -0.25431622       0.85693545       2.40167043       0.00000000
Si      -0.47983987      -2.54601297      -0.22969407       0.00000000
Si       2.93285975       1.59016464       0.74626402       0.00000000
Si      -0.90508773      -0.60075891      -3.30715263       0.00000000
Si      -2.23521510      -1.95455565      -1.82508721       0.00000000
Si       1.17213880      -2.69959509       1.87059785       0.00000000
Si       1.45244083      -0.68085684       3.12341809       0.00000000
Si       1.38545635       3.50257806       0.38124658       0.00000000
Si      -3.52636050       1.28376603       1.05831232       0.00000000
