10
Lattice="16.28999089631971 0.0 0.0 0.0 16.28999089631971 0.0 0.0 0.0 34.5300574570662" Properties=species:S:1:pos:R:3:initial_magmoms:R:1 pbc="T T T"
Si      -0.40602499       2.30016429      -0.01508964       0.00000000
Si       1.49866045      -0.82046214      -1.62177411       0.00000000
Si      -1.90506078      -1.32291090       0.41460263       0.00000000
Si       1.26462202      -0.17050743       2.01396673       0.00000000
Si      -0.66253059      -3.33492138       0.20427993       0.00000000
Si      -2.37629790      -0.36124704       2.65329110       0.00000000
Si       3.55517521      -0.18067239      -0.65596787       0.00000000
Si       1.13184223      -3.14252019      -1.39788110       0.00000000
Si      -0.19114197       2.85122241       2.30968230       0.00000000
Si      -0.26389311      -1.23592230       3.45659880       0.00000000
