10
Lattice="16.28999089631971 0.0 0.0 0.0 16.28999089631971 0.0 0.0 0.0 34.5300574570662" Properties=species:S:1:pos:R:3:initial_magmoms:R:1 pbc="T T T"
Si      -1.77511478      -1.13713974       0.99463886       0.00000000
Si       0.27932463       0.50824800      -2.28848084       0.00000000
Si      -0.69597396       2.06552313       1.06041866       0.00000000
Si       2.07342378      -1.18454364       0.52337237       0.00000000
Si       1.49149611       2.70772380       1.44318456       0.00000000
Si       2.65632885       2.41691472      -0.59964931       0.00000000
Si      -1.56023176      -0.58608162       3.31941081       0.00000000
Si       2.34950670      -0.94097556       2.83547178       0.00000000
Si       3.77080920       0.22933062      -0.46774442       0.00000000
Si      -1.36908979      -3.43730403       1.00972850       0.00000000
