10
Lattice="16.28999089631971 0.0 0.0 0.0 16.28999089631971 0.0 0.0 0.0 34.5300574570662" Properties=species:S:1:pos:R:3:initial_magmoms:R:1 pbc="T T T"
Si      -1.35426915       1.35578412      -1.35938006       0.00000000
Si       1.35630540      -1.35573525      -1.36000160       0.00000000
Si       1.35663120       1.35757602       1.35834416       0.00000000
Si      -1.35699121      -1.35747828       1.35810245       0.00000000
Si       0.00540828       2.70725139      -2.71731331       0.00000000
Si      -2.71390490       2.71329498       0.00010359       0.00000000
Si      -2.71422344      -2.71362078       0.00037983       0.00000000
Si       2.71461447       2.71411799       0.00079419       0.00000000
Si      -2.71385515      -0.00091224       2.71516900       0.00000000
Si       0.00037467       2.71445157       2.71516900       0.00000000
