10
Lattice="16.28999089631971 0.0 0.0 0.0 16.28999089631971 0.0 0.0 0.0 34.5300574570662" Properties=species:S:1:pos:R:3:initial_magmoms:R:1 pbc="T T T"
Si      -1.62095763      -1.01577924       1.32329613       0.00000000
Si       1.40633199      -1.29150378      -1.33251566       0.00000000
Si       1.38469887       1.25849277       1.40620285       0.00000000
Si      -1.34427524       1.46053112      -1.30965675       0.00000000
Si      -2.35444909       0.92670945       2.51261557       0.00000000
Si      -0.32803173       2.23838351       2.86489141       0.00000000
Si       0.02533095      -2.61957861      -2.69441642       0.00000000
Si      -2.69297225       0.09992286      -2.68864990       0.00000000
Si      -2.75462990      -2.63836098       0.02731329       0.00000000
Si       2.73452085       0.09813096      -2.68878802       0.00000000
