10
Lattice="16.28999089631971 0.0 0.0 0.0 16.28999089631971 0.0 0.0 0.0 34.5300574570662" Properties=species:S:1:pos:R:3:initial_magmoms:R:1 pbc="T T T"
Si       1.13451705       1.90705957      -0.75341174       0.00000000
Si      -2.00744537      -0.06230925       1.23634940       0.00000000
Si       1.60331067      -1.49679036       0.97336833       0.00000000
Si      -0.74525773      -1.15479810      -2.20533241       0.00000000
Si      -2.96662796      -1.96103907       0.20541943       0.00000000
Si       3.24190548      -1.34213310      -0.77630519       0.00000000
Si       0.52932726      -3.56969286       1.33762611       0.00000000
Si      -3.13698878      -1.16427888      -1.92539708       0.00000000
Si       1.81708434       3.24917801       1.04515636       0.00000000
Si      -3.38671448       1.78715865       0.55120362       0.00000000
