10
Lattice="16.28999089631971 0.0 0.0 0.0 16.28999089631971 0.0 0.0 0.0 34.5300574570662" Properties=species:S:1:pos:R:3:initial_magmoms:R:1 pbc="T T T"
Si      -1.87736223      -0.17415639      -1.35382072       0.00000000
Si      -0.27932463      -0.50824800       2.28848084       0.00000000
Si       1.07398341       2.07290250      -0.36425778       0.00000000
Si      -0.50075460       0.07530867      -3.32514280       0.00000000
Si       2.55274074      -0.21558186      -2.26772826       0.00000000
Si       2.37700422       1.90866672       1.68883152       0.00000000
Si      -2.14052718      -2.57033394      -1.30471895       0.00000000
Si       1.04664879      -1.83710475      -2.96012536       0.00000000
Si       1.79409915      -1.69279164       2.81185321       0.00000000
Si      -0.97529859       1.55727513       3.34889949       0.00000000
