10
Lattice="16.28999089631971 0.0 0.0 0.0 16.28999089631971 0.0 0.0 0.0 34.69518985606464" Properties=species:S:1:pos:R:3:initial_magmoms:R:1 pbc="T T T"
Si      -1.65510051      -0.98930799      -1.43128147       0.00000000
Si       1.06986530       1.85605002      -1.14001519       0.00000000
Si      -1.41162119       0.07983729       2.03758025       0.00000000
Si       2.09227457      -1.61145567       0.00242866       0.00000000
Si      -1.06096444       3.32460981       0.22569234       0.00000000
Si      -0.15923801      -2.19223327      -2.74997698       0.00000000
Si       2.54736830       0.56622411      -2.72704345       0.00000000
Si      -3.25868811      -2.06968523      -0.03733205       0.00000000
Si       1.20974753      -3.52389257      -1.21034237       0.00000000
Si      -1.85203032      -2.23444880       2.73970720       0.00000000
