10
Lattice="16.28999089631971 0.0 0.0 0.0 16.28999089631971 0.0 0.0 0.0 34.69518985606464" Properties=species:S:1:pos:R:3:initial_magmoms:R:1 pbc="T T T"
Si      -1.32579423      -1.76024527      -0.74566944       0.00000000
Si      -0.85033800       1.88509509      -1.13099443       0.00000000
Si       2.04719688      -0.44562924      -1.10393217       0.00000000
Si      -0.26375139       0.28893573       2.34230827       0.00000000
Si       0.92812275       1.99549242      -2.81176915       0.00000000
Si      -2.86433586       1.01418282      -2.01381403       0.00000000
Si      -3.09381309      -1.78084235       0.78546484       0.00000000
Si       2.99017611       1.69130925      -1.55385964       0.00000000
Si      -2.25891801      -1.11489086      -2.86301397       0.00000000
Si      -2.45545686      -0.77743862       2.83102499       0.00000000
