10
Lattice="16.28999089631971 0.0 0.0 0.0 16.28999089631971 0.0 0.0 0.0 34.69518985606464" Properties=species:S:1:pos:R:3:initial_magmoms:R:1 pbc="T T T"
Si      -2.04496515       1.01957481      -0.70767818       0.00000000
Si       0.51197841       1.27444815       1.98900696       0.00000000
Si       1.70331498       0.14121801      -1.73000722       0.00000000
Si      -0.83121354      -2.14766057       0.78348722       0.00000000
Si      -2.95083576      -1.45211829       1.61232107       0.00000000
Si      -2.44187100       2.66773185       0.91650865       0.00000000
Si       1.21995810       3.39499890       1.16031188       0.00000000
Si       0.91140921      -1.34174214      -3.44766294       0.00000000
Si      -3.74793804      -0.60031908      -0.44590283       0.00000000
Si      -1.53363834       1.89229527       3.02708762       0.00000000
