10
Lattice="16.28999089631971 0.0 0.0 0.0 16.28999089631971 0.0 0.0 0.0 34.69518985606464" Properties=species:S:1:pos:R:3:initial_magmoms:R:1 pbc="T T T"
Si       1.35635427       1.35601218      -1.35810927       0.00000000
Si      -1.35576783       1.35783666       1.35751945       0.00000000
Si       1.35772263      -1.35752715       1.35751945       0.00000000
Si      -1.35876519      -1.35848826      -1.35696433       0.00000000
Si      -2.71392540       2.71459818      -0.00020817       0.00000000
Si       2.71399545      -0.00154755       2.71486543       0.00000000
Si      -2.71113981       0.00058644      -2.71802269       0.00000000
Si      -2.71313697      -0.00159642       2.71628793       0.00000000
Si      -2.71450370      -2.71511783      -0.00027756       0.00000000
Si       0.00030951       2.71500543      -2.71469195       0.00000000
