10
Lattice="16.28999089631971 0.0 0.0 0.0 16.28999089631971 0.0 0.0 0.0 34.69518985606464" Properties=species:S:1:pos:R:3:initial_magmoms:R:1 pbc="T T T"
Si      -0.80141913      -1.76922432       1.32004863       0.00000000
Si       0.65842551       1.94090463       1.18421688       0.00000000
Si       1.44324513      -1.19563713      -1.47898738       0.00000000
Si      -1.27593054       1.48375836      -1.49588395       0.00000000
Si      -0.67114800      -0.30217950       3.23928352       0.00000000
Si      -2.75437836      -2.61798219       0.11629834       0.00000000
Si       2.68366347       2.69255781      -0.09006876       0.00000000
Si       0.07648155      -2.56358988      -2.85132169       0.00000000
Si      -3.02018229       2.38422069      -0.21316737       0.00000000
Si      -2.62547559       0.14533938      -2.86349970       0.00000000
