10
Lattice="16.28999089631971 0.0 0.0 0.0 16.28999089631971 0.0 0.0 0.0 34.69518985606464" Properties=species:S:1:pos:R:3:initial_magmoms:R:1 pbc="T T T"
Si       0.80141913       1.76922432      -1.32004863       0.00000000
Si       0.13027113       1.46704482       1.91923489       0.00000000
Si      -1.95295923      -0.84875787      -1.20375028       0.00000000
Si      -0.47545623      -2.13858378      -2.79077855       0.00000000
Si       2.24466426       0.57358719      -2.79903601       0.00000000
Si       0.95615784      -3.47477103      -1.39297796       0.00000000
Si       1.45984464       3.71012895      -0.13583174       0.00000000
Si       1.39181760       0.19694610       3.77650414       0.00000000
Si      -3.02282453      -2.70480789      -0.06373510       0.00000000
Si       2.58116679      -3.11345883       0.56317264       0.00000000
