10
Lattice="16.28999089631971 0.0 0.0 0.0 16.28999089631971 0.0 0.0 0.0 34.69518985606464" Properties=species:S:1:pos:R:3:initial_magmoms:R:1 pbc="T T T"
Si       0.05010804      -2.15037774       0.89839775       0.00000000
Si      -0.40001724       1.53920952       1.74586293       0.00000000
Si       2.35180359       0.62770257      -0.09291377       0.00000000
Si      -1.26154647       1.27009872      -1.85726925       0.00000000
Si       0.26083548       3.57096348       0.65844568       0.00000000
Si      -3.72141792       0.65203983       0.07979898       0.00000000
Si      -1.72835271      -2.26077507       2.57917246       0.00000000
Si       2.11216140      -2.45456091       2.15630725       0.00000000
Si      -2.63743245       1.49097483       2.46793962       0.00000000
Si       0.19930815      -3.83311845      -0.91768828       0.00000000
