10
Lattice="16.28999089631971 0.0 0.0 0.0 16.28999089631971 0.0 0.0 0.0 34.69518985606464" Properties=species:S:1:pos:R:3:initial_magmoms:R:1 pbc="T T T"
Si      -1.58811210      -1.54026837       0.75288604       0.00000000
Si      -0.64980810       1.80299349       1.35748476       0.00000000
Si       2.07371700      -0.81300132       0.99668928       0.00000000
Si      -1.19922093       0.72860283      -1.99976247       0.00000000
Si      -1.25169102      -1.61530011      -2.64519745       0.00000000
Si      -3.47232427      -0.25216920       0.09163005       0.00000000
Si      -1.19120625      -3.18842541      -0.87130079       0.00000000
Si      -0.04818582       3.60743679      -0.02047017       0.00000000
Si       1.36573731      -2.93355207       1.82538435       0.00000000
Si      -0.67987944      -2.31570495       2.86346501       0.00000000
