10
Lattice="16.28999089631971 0.0 0.0 0.0 16.28999089631971 0.0 0.0 0.0 34.69518985606464" Properties=species:S:1:pos:R:3:initial_magmoms:R:1 pbc="T T T"
Si      -2.13211665      -0.07201809      -1.01577164       0.00000000
Si       0.57399444       2.07645372       1.02711697       0.00000000
Si       1.79155791       0.03124422      -1.65176952       0.00000000
Si      -0.11872152      -2.11245462       1.22029990       0.00000000
Si       1.50578244       1.32180318       3.01352179       0.00000000
Si      -2.20801176       1.89167625      -2.32038090       0.00000000
Si      -0.91062729      -3.59541477      -0.49735582       0.00000000
Si       2.58953985      -2.19726036      -1.70728186       0.00000000
Si       2.07547632      -2.55502134       1.98758445       0.00000000
Si      -2.64334572      -2.37327381      -1.60295336       0.00000000
