10
Lattice="16.28999089631971 0.0 0.0 0.0 16.28999089631971 0.0 0.0 0.0 34.69518985606464" Properties=species:S:1:pos:R:3:initial_magmoms:R:1 pbc="T T T"
Si       0.93178800      -0.75465054       1.98640481       0.00000000
Si       1.96247259       0.94429872      -0.91859036       0.00000000
Si      -0.57399444      -2.07645372      -1.02711697       0.00000000
Si      -0.99805572       2.11238946      -0.50727865       0.00000000
Si       0.76716126       2.60563437      -2.08820056       0.00000000
Si      -1.17607284      -0.93512745       3.08350203       0.00000000
Si       1.21756347      -2.04520950      -2.67888650       0.00000000
Si       2.13705252       1.12107780       2.77783723       0.00000000
Si       2.99097432       2.14858584       0.85426544       0.00000000
Si       3.19824828      -0.76183443      -1.88648261       0.00000000
