10
Lattice="16.28999089631971 0.0 0.0 0.0 16.28999089631971 0.0 0.0 0.0 34.69518985606464" Properties=species:S:1:pos:R:3:initial_magmoms:R:1 pbc="T T T"
Si       2.28794679      -0.14434569      -0.47331204       0.00000000
Si      -0.60162228      -1.80444330       1.37795493       0.00000000
Si      -0.54876123       1.81278378       1.44731065       0.00000000
Si      -1.37551131       0.90590319      -1.83853383       0.00000000
Si      -1.43057151       2.86166430      -0.47476924       0.00000000
Si       2.64653856       2.18745378      -0.15227727       0.00000000
Si      -2.65204458      -0.72166329       2.06960393       0.00000000
Si      -2.89162161      -1.03395888      -1.84616678       0.00000000
Si       0.04818582      -3.60743679       0.02047017       0.00000000
Si      -1.15103511      -2.87883396      -1.97929230       0.00000000
