10
Lattice="16.28999089631971 0.0 0.0 0.0 16.28999089631971 0.0 0.0 0.0 34.69518985606464" Properties=species:S:1:pos:R:3:initial_magmoms:R:1 pbc="T T T"
Si      -1.22834160       0.40861836      -1.94601959       0.00000000
Si       0.76397982       2.18717685       0.39205586       0.00000000
Si       2.00713651      -1.25454014      -0.35281558       0.00000000
Si      -1.71534744      -0.79394202       1.56593357       0.00000000
Si       1.66617052      -2.44606567       1.68854644       0.00000000
Si      -0.45668119       2.50874145       2.40798630       0.00000000
Si      -0.86756697       0.35914563       3.38174205       0.00000000
Si       0.18896400      -0.54073026      -3.51337567       0.00000000
Si       1.36878028      -2.25794387      -2.39837573       0.00000000
Si       1.27221316      -0.66888369       3.26582535       0.00000000
