10
Lattice="16.28999089631971 0.0 0.0 0.0 16.28999089631971 0.0 0.0 0.0 34.69518985606464" Properties=species:S:1:pos:R:3:initial_magmoms:R:1 pbc="T T T"
Si      -1.75254336      -0.85942782       1.44413053       0.00000000
Si       0.97938738       1.72903104       1.43340624       0.00000000
Si       0.31236075       0.04227255      -2.46398437       0.00000000
Si       1.65998358      -1.97400591       0.29328905       0.00000000
Si       2.49214194       1.16510057      -2.36690717       0.00000000
Si      -0.39703617      -2.17750059       2.95373296       0.00000000
Si       0.50811768      -2.40272613      -2.88705775       0.00000000
Si       2.32590249       0.53758629       2.97321432       0.00000000
Si       2.84974002       2.66363396       0.19998319       0.00000000
Si       3.44836494      -1.00018971       1.61483443       0.00000000
