10
Lattice="16.28999089631971 0.0 0.0 0.0 16.28999089631971 0.0 0.0 0.0 34.69518985606464" Properties=species:S:1:pos:R:3:initial_magmoms:R:1 pbc="T T T"
Si      -0.39690585       1.64815704       1.62418683       0.00000000
Si      -1.70297289      -1.61989389       0.26177535       0.00000000
Si      -0.06048477       1.57312530      -1.77389666       0.00000000
Si       2.04496515      -1.01957481       0.70767818       0.00000000
Si      -0.90587061      -2.47169310       2.31999925       0.00000000
Si       1.19120625       3.18842541       0.87130079       0.00000000
Si      -2.21120623       1.23616665      -2.61199413       0.00000000
Si       1.21375161      -3.16723538       1.49116540       0.00000000
Si       2.55694356       0.25487334       2.69668514       0.00000000
Si      -3.43186724       1.55773125      -0.59606369       0.00000000
