10
Lattice="16.28999089631971 0.0 0.0 0.0 16.28999089631971 0.0 0.0 0.0 34.69518985606464" Properties=species:S:1:pos:R:3:initial_magmoms:R:1 pbc="T T T"
Si      -1.35633798      -1.35685577       1.35613164       0.00000000
Si       1.35661491      -1.35255521      -1.36289721       0.00000000
Si       1.35814617       1.35853477       1.35613164       0.00000000
Si      -1.35650088       1.36039509      -1.35790110       0.00000000
Si      -2.71435383       0.00030439       2.71340823       0.00000000
Si      -2.71508688       2.71289840      -0.00024287       0.00000000
Si       0.00153126      -2.71482275       2.71385927       0.00000000
Si      -0.00457749       2.71060151      -2.71809555       0.00000000
Si       0.00177561       2.71596092       2.71320006       0.00000000
Si       2.71560816       2.71371290      -0.00173476       0.00000000
