10
Lattice="16.28999089631971 0.0 0.0 0.0 16.28999089631971 0.0 0.0 0.0 34.69518985606464" Properties=species:S:1:pos:R:3:initial_magmoms:R:1 pbc="T T T"
Si      -1.00066212      -2.03078471       0.68623654       0.00000000
Si      -0.37792800       0.93928140       2.14430271       0.00000000
Si       2.25342828      -0.02363679      -0.93035204       0.00000000
Si      -1.51019703       1.93618053      -2.00285034       0.00000000
Si       1.15183332       1.17361305      -2.74140726       0.00000000
Si      -1.62766422      -1.47708923      -2.72870882       0.00000000
Si      -0.90292212      -3.24360683      -1.32001393       0.00000000
Si       3.25081611      -1.51897408       0.81492107       0.00000000
Si       0.92655891      -0.51176664       3.53020285       0.00000000
Si      -0.07622091       3.26880027       1.89637075       0.00000000
