10
Lattice="16.28999089631971 0.0 0.0 0.0 16.28999089631971 0.0 0.0 0.0 34.69518985606464" Properties=species:S:1:pos:R:3:initial_magmoms:R:1 pbc="T T T"
Si       1.21417515      -1.59602808       1.20281351       0.00000000
Si       0.09774000      -1.21282212      -2.00625047       0.00000000
Si       1.00066212       2.03078471      -0.68623654       0.00000000
Si      -2.24946981       0.11889745       0.89680177       0.00000000
Si      -1.17100665      -2.92889217      -0.62885067       0.00000000
Si       0.62273412       2.97006610       1.45806617       0.00000000
Si       0.94747527      -0.56819357       3.26742133       0.00000000
Si      -0.62700210       0.55369547      -3.41494536       0.00000000
Si       1.92722103       1.51901807       2.84396630       0.00000000
Si      -3.11222079      -2.07229881       0.47143850       0.00000000
