10
Lattice="16.28999089631971 0.0 0.0 0.0 16.28999089631971 0.0 0.0 0.0 34.69518985606464" Properties=species:S:1:pos:R:3:initial_magmoms:R:1 pbc="T T T"
Si       1.34775315      -1.35179307      -1.35623573       0.00000000
Si      -1.36726857      -1.34091135       1.36529118       0.00000000
Si       1.33081155       1.36014984       1.38489397       0.00000000
Si      -1.36677987       1.36026387      -1.35318255       0.00000000
Si      -2.18678589       0.53998092       2.64790367       0.00000000
Si      -0.52631361       2.30785317       2.73231712       0.00000000
Si       2.47849092      -0.21144420       2.74213586       0.00000000
Si       2.70824508      -2.70519885       0.00489202       0.00000000
Si       2.70752832       0.00431685      -2.71132652       0.00000000
Si      -0.00689067      -2.70847314      -2.71108365       0.00000000
