10
Lattice="16.28999089631971 0.0 0.0 0.0 16.28999089631971 0.0 0.0 0.0 34.69518985606464" Properties=species:S:1:pos:R:3:initial_magmoms:R:1 pbc="T T T"
Si      -0.93178800       0.75465054      -1.98640481       0.00000000
Si       1.20526452       1.87572834       0.79143242       0.00000000
Si      -2.10786084      -0.18047691       1.09709721       0.00000000
Si       1.52847441      -1.77199362      -0.51657697       0.00000000
Si       2.05679169      -2.20408587       1.72147220       0.00000000
Si       1.03068459       1.69894926      -2.90499517       0.00000000
Si       1.74504996      -0.44812161       3.11333991       0.00000000
Si      -0.60916455       3.21677001       1.50205969       0.00000000
Si      -1.50578244      -1.32180318      -3.01352179       0.00000000
Si       2.05918632       2.90323638      -1.13213937       0.00000000
