10
Lattice="16.28999089631971 0.0 0.0 0.0 16.28999089631971 0.0 0.0 0.0 34.69518985606464" Properties=species:S:1:pos:R:3:initial_magmoms:R:1 pbc="T T T"
Si      -0.31174173       1.75596426       1.39186771       0.00000000
Si      -0.52831728       0.43209225      -2.23804917       0.00000000
Si       1.57599234      -1.58317623       0.80926576       0.00000000
Si      -2.63733471      -1.00421334       1.18355767       0.00000000
Si       1.10804580       3.11373576       0.14075846       0.00000000
Si      -2.05679169       2.20408587      -1.72147220       0.00000000
Si      -1.48709781      -1.67273865      -2.74740953       0.00000000
Si       0.25769151       0.95060295       3.49849084       0.00000000
Si       1.70447157      -1.04065407       3.31155364       0.00000000
Si      -1.46108268      -3.44191410      -1.13377005       0.00000000
