10
Lattice="16.28999089631971 0.0 0.0 0.0 16.28999089631971 0.0 0.0 0.0 34.69518985606464" Properties=species:S:1:pos:R:3:initial_magmoms:R:1 pbc="T T T"
Si       0.31174173      -1.75596426      -1.39186771       0.00000000
Si       0.56943324      -0.80536131       2.10662313       0.00000000
Si       1.41978753       1.35777150      -1.25110925       0.00000000
Si      -0.53978544       2.32384995      -2.32190749       0.00000000
Si      -2.35877571       1.80972126       1.93273133       0.00000000
Si       1.47644415       3.22822188       0.11203083       0.00000000
Si      -1.74504996       0.44812161      -3.11333991       0.00000000
Si      -2.32559298      -2.76017760      -0.20831004       0.00000000
Si       1.50680871       0.93193461       3.39650281       0.00000000
Si      -0.21657555      -1.32387201      -3.62991688       0.00000000
