10
Lattice="16.28999089631971 0.0 0.0 0.0 16.28999089631971 0.0 0.0 0.0 34.69518985606464" Properties=species:S:1:pos:R:3:initial_magmoms:R:1 pbc="T T T"
Si       1.35365013       1.35420399       1.35856031       0.00000000
Si      -1.35658233       1.35744570      -1.35651329       0.00000000
Si      -1.35684297      -1.36039419       1.35502140       0.00000000
Si       1.35845568      -1.35775521      -1.35668677       0.00000000
Si      -0.00632052      -2.70917361       2.70986932       0.00000000
Si      -2.70751203      -0.00042354       2.71493482       0.00000000
Si       2.71459818      -0.00144981      -2.71375518       0.00000000
Si      -2.71391400       2.71482624       0.00031226       0.00000000
Si      -2.71355562      -2.71520091      -0.00058982       0.00000000
Si      -0.00052128       2.71541268      -2.71337353       0.00000000
