10
Lattice="16.28999089631971 0.0 0.0 0.0 16.28999089631971 0.0 0.0 0.0 34.69518985606464" Properties=species:S:1:pos:R:3:initial_magmoms:R:1 pbc="T T T"
Si      -1.35679725       1.35661491      -1.35800519       0.00000000
Si       1.35956254       1.35560493       1.35866439       0.00000000
Si       1.35819581      -1.35791648      -1.35790110       0.00000000
Si      -1.35837738      -1.36066297       1.35679085       0.00000000
Si      -2.71422666       2.71295289      -0.00090208       0.00000000
Si       2.71393432      -0.00128691      -2.71458787       0.00000000
Si      -2.71350990       0.00343719       2.71531647       0.00000000
Si       0.00063375       2.71394658      -2.71507360       0.00000000
Si      -2.71414521      -2.71586396      -0.00041634       0.00000000
Si       0.00282968      -2.71477514       2.71542055       0.00000000
