10
Lattice="16.28999089631971 0.0 0.0 0.0 16.28999089631971 0.0 0.0 0.0 34.69518985606464" Properties=species:S:1:pos:R:3:initial_magmoms:R:1 pbc="T T T"
Si      -1.35531330       1.35682668      -1.35797049       0.00000000
Si      -1.35743100      -1.35733167       1.35706841       0.00000000
Si       1.35814036       1.35785295       1.35724189       0.00000000
Si       1.36092595      -1.35615879      -1.36057263       0.00000000
Si       2.69306839       0.00902466      -2.70776679       0.00000000
Si       2.71330057      -2.71523349       0.00048573       0.00000000
Si      -2.71486041       2.71410948      -0.00010409       0.00000000
Si      -0.00063375      -2.71394658       2.71507360       0.00000000
Si      -2.71486041      -0.00099369       2.71417152       0.00000000
Si       2.71473409       2.71510317       0.00000000       0.00000000
