10
Lattice="16.28999089631971 0.0 0.0 0.0 16.28999089631971 0.0 0.0 0.0 34.69518985606464" Properties=species:S:1:pos:R:3:initial_magmoms:R:1 pbc="T T T"
Si      -0.09774000       1.21282212       2.00625047       0.00000000
Si      -0.72474210       1.76651759      -1.40869489       0.00000000
Si       2.11312251      -0.76116654      -1.04953008       0.00000000
Si      -1.26874665      -1.71607005       1.37739981       0.00000000
Si      -1.81630242       0.06226038      -2.71080609       0.00000000
Si       1.11643515      -0.38320596       3.20906399       0.00000000
Si       0.90292212       3.24360683       1.32001393       0.00000000
Si       1.13586912      -2.48705946      -2.44819805       0.00000000
Si      -3.39077979      -1.41608970      -1.10389747       0.00000000
Si       0.39912129      -2.62076778       2.81218549       0.00000000
