10
Lattice="16.28999089631971 0.0 0.0 0.0 16.28999089631971 0.0 0.0 0.0 34.69518985606464" Properties=species:S:1:pos:R:3:initial_magmoms:R:1 pbc="T T T"
Si       1.35576783       1.35520099       1.35720720       0.00000000
Si       1.35760860      -1.35718080      -1.35758884       0.00000000
Si      -1.35812988       1.35860071      -1.35731128       0.00000000
Si      -1.36026387      -1.35926592       1.35727659       0.00000000
Si       2.71220114      -0.00069189      -2.71521238       0.00000000
Si       2.71414580      -2.71449618      -0.00062451       0.00000000
Si      -0.00066789       2.71377884      -2.71517769       0.00000000
Si      -2.71474479      -2.71475682       0.00041634       0.00000000
Si      -2.71627605       0.00006594      -2.71344292       0.00000000
Si       2.71414521       2.71586396       0.00041634       0.00000000
