10
Lattice="16.28999089631971 0.0 0.0 0.0 16.28999089631971 0.0 0.0 0.0 34.69518985606464" Properties=species:S:1:pos:R:3:initial_magmoms:R:1 pbc="T T T"
Si       1.35746199       1.35517813      -1.35786640       0.00000000
Si      -1.35637056       1.35742615       1.35706841       0.00000000
Si      -1.35814617      -1.35853477      -1.35613164       0.00000000
Si       1.35812988      -1.35860071       1.35731128       0.00000000
Si      -0.00172674       2.71410622       2.71191634       0.00000000
Si      -2.71388142       2.71374784      -0.00045104       0.00000000
Si       2.71389771      -0.00339972       2.71451848       0.00000000
Si      -2.71464705       0.00186032      -2.71403274       0.00000000
Si      -2.71484253      -0.00232295       2.71424091       0.00000000
Si       2.71547784       2.71387816      -0.00027756       0.00000000
