10
Lattice="16.28999089631971 0.0 0.0 0.0 16.28999089631971 0.0 0.0 0.0 34.69518985606464" Properties=species:S:1:pos:R:3:initial_magmoms:R:1 pbc="T T T"
Si      -1.35475272       1.35223290      -1.36518709       0.00000000
Si      -1.35708219      -1.36855548       1.36032976       0.00000000
Si       1.36326866      -1.36298430      -1.36383398       0.00000000
Si       1.37327398       1.35780408       1.36549935       0.00000000
Si      -2.70560097       2.70821250      -0.00277562       0.00000000
Si      -2.70980379      -2.71515204      -0.00718191       0.00000000
Si       2.73003713       2.70313002      -0.01439851       0.00000000
Si       0.00428318       2.71107954      -2.72225551       0.00000000
Si      -2.71052055      -0.00563634      -2.72340045       0.00000000
Si       2.72130569      -2.71927341      -0.00367769       0.00000000
