10
Lattice="16.28999089631971 0.0 0.0 0.0 16.28999089631971 0.0 0.0 0.0 34.69518985606464" Properties=species:S:1:pos:R:3:initial_magmoms:R:1 pbc="T T T"
Si      -2.23049196      -0.72710415      -0.19377274       0.00000000
Si       0.07372854       2.35709784      -0.27926174       0.00000000
Si       1.62325356      -0.86372838      -1.52783823       0.00000000
Si       0.09861966      -0.27228735       2.40628624       0.00000000
Si      -1.66104243       1.22859180       2.72523930       0.00000000
Si       2.69284193       1.52217018      -1.53158532       0.00000000
Si       2.67190928      -2.26155699       0.08496857       0.00000000
Si      -0.34964856       3.03710760       1.93640902       0.00000000
Si      -1.85603373       2.84592816      -1.61197412       0.00000000
Si      -1.68526566      -0.84567906      -3.28851602       0.00000000
