10
Lattice="16.28999089631971 0.0 0.0 0.0 16.28999089631971 0.0 0.0 0.0 34.69518985606464" Properties=species:S:1:pos:R:3:initial_magmoms:R:1 pbc="T T T"
Si       1.52643816      -0.94161087      -1.47697506       0.00000000
Si       1.38940668       1.47303954       1.14809917       0.00000000
Si      -0.26308350      -1.80287946       1.61346601       0.00000000
Si      -1.21761234       1.76526585      -1.44325131       0.00000000
Si       0.15574869      -2.29179123      -2.83928245       0.00000000
Si      -0.24474096       1.98408942       3.09096150       0.00000000
Si       1.48937841      -1.20330972       3.20309641       0.00000000
Si       3.35491965      -1.84393026      -0.11969847       0.00000000
Si      -2.55912642       0.42805233      -2.83983757       0.00000000
Si      -2.61141732      -2.06869968       2.14631503       0.00000000
