10
Lattice="16.28999089631971 0.0 0.0 0.0 16.28999089631971 0.0 0.0 0.0 34.69518985606464" Properties=species:S:1:pos:R:3:initial_magmoms:R:1 pbc="T T T"
Si       0.72602901      -2.15128998      -0.57673846       0.00000000
Si      -0.20833281       0.99846297      -2.17479980       0.00000000
Si      -2.12217975      -0.92704761       0.70583934       0.00000000
Si       0.91862568       0.85081041       2.11675472       0.00000000
Si      -2.86208784       1.14722325       1.50761093       0.00000000
Si       2.49059995      -2.28582909       0.97455373       0.00000000
Si      -1.92002085      -0.53476812      -3.04027180       0.00000000
Si      -1.12117554       1.91070297       2.92910835       0.00000000
Si       1.66658724      -1.33232652       3.01803217       0.00000000
Si      -1.16097201       3.16315962      -1.84269726       0.00000000
