10
Lattice="16.28999089631971 0.0 0.0 0.0 16.28999089631971 0.0 0.0 0.0 34.69518985606464" Properties=species:S:1:pos:R:3:initial_magmoms:R:1 pbc="T T T"
Si      -0.73990809       2.07427086       0.80177159       0.00000000
Si      -1.18452735      -0.56614266      -1.97433088       0.00000000
Si       0.35280882      -2.04941232       1.23154115       0.00000000
Si       2.12217975       0.92704761      -0.70583934       0.00000000
Si       2.84820876      -1.22424237      -1.28257780       0.00000000
Si       1.53681489      -3.03275817      -0.49374752       0.00000000
Si       1.00100421       2.83775058       2.22326901       0.00000000
Si       0.20215890       0.39227949      -3.74611113       0.00000000
Si      -0.97156818       3.45445740      -1.16940203       0.00000000
Si       3.04080543       1.77785802       1.41091538       0.00000000
