10
Lattice="16.28999089631971 0.0 0.0 0.0 16.28999089631971 0.0 0.0 0.0 34.69518985606464" Properties=species:S:1:pos:R:3:initial_magmoms:R:1 pbc="T T T"
Si       1.35439947       1.35384140       1.35713780       0.00000000
Si      -1.35712316       1.35747407      -1.35769293       0.00000000
Si       1.35778779      -1.35765421      -1.35772762       0.00000000
Si      -1.36146933      -1.36042351       1.35627042       0.00000000
Si      -0.00158013      -2.71014775       2.71597567       0.00000000
Si      -2.71248929       0.00061541       2.71562872       0.00000000
Si      -0.00138465       2.71410364      -2.71437970       0.00000000
Si       2.71368594      -0.00315768      -2.71510829       0.00000000
Si       2.71466334       0.00428652       2.71507360       0.00000000
Si       2.71510317       2.71506475       0.00010409       0.00000000
