10
Lattice="16.28999089631971 0.0 0.0 0.0 16.28999089631971 0.0 0.0 0.0 34.69518985606464" Properties=species:S:1:pos:R:3:initial_magmoms:R:1 pbc="T T T"
Si      -1.96380837      -1.02322377       0.64703096       0.00000000
Si      -0.69911793       2.26756800       0.12618648       0.00000000
Si       0.49997268      -1.20619305      -2.01728355       0.00000000
Si       1.95004332       2.26939248       0.50575207       0.00000000
Si       2.23431589       0.51160374       2.31673790       0.00000000
Si      -1.24672257      -1.37927430       2.83806330       0.00000000
Si       2.02808871       2.04229359      -1.95538730       0.00000000
Si       2.70157825      -0.33464547      -2.32745872       0.00000000
Si      -0.19401390       2.89606878      -2.11501996       0.00000000
Si      -2.02046499      -2.89367415      -0.71610912       0.00000000
