10
Lattice="16.28999089631971 0.0 0.0 0.0 16.28999089631971 0.0 0.0 0.0 34.69518985606464" Properties=species:S:1:pos:R:3:initial_magmoms:R:1 pbc="T T T"
Si      -1.31082535       1.41894045      -1.39159015       0.00000000
Si      -1.06958837      -2.38589856       0.00374708       0.00000000
Si       1.08398547       0.83893500       2.38814064       0.00000000
Si      -2.61911339       0.83492766       1.25232358       0.00000000
Si       2.45987145       0.61805889      -1.93706823       0.00000000
Si      -2.69284193      -1.52217018       1.53158532       0.00000000
Si      -0.16508286       3.60219141       0.31531006       0.00000000
Si       3.72141792      -0.65203983      -0.07979898       0.00000000
Si       3.32140068       0.88716969       1.66606395       0.00000000
Si      -1.75418865      -0.22918401      -3.69434588       0.00000000
