10
Lattice="16.28999089631971 0.0 0.0 0.0 16.28999089631971 0.0 0.0 0.0 34.69518985606464" Properties=species:S:1:pos:R:3:initial_magmoms:R:1 pbc="T T T"
Si       1.35247725      -1.35840681      -1.36532587       0.00000000
Si       1.33897284       1.35876519       1.38038360       0.00000000
Si      -1.36469475       1.35736425      -1.36300130       0.00000000
Si      -1.37295378      -1.37363796       1.39589235       0.00000000
Si       2.70254285      -2.70402597      -0.00541245       0.00000000
Si      -0.30524202       2.62016505       2.76756745       0.00000000
Si      -2.71446786      -2.71085148      -0.00069390       0.00000000
Si       2.71254401       2.71771899      -0.00444099       0.00000000
Si       2.70971492       0.00213399      -2.72090239       0.00000000
Si      -0.00366525      -2.71221984      -2.72013910       0.00000000
