10
Lattice="16.28999089631971 0.0 0.0 0.0 16.28999089631971 0.0 0.0 0.0 34.69518985606464" Properties=species:S:1:pos:R:3:initial_magmoms:R:1 pbc="T T T"
Si       2.08612998      -0.93463875       0.37106526       0.00000000
Si       0.19647369       2.32345899       0.11213492       0.00000000
Si      -1.63721016      -0.88203834       1.52953830       0.00000000
Si       1.63414764      -0.51104988      -1.94286233       0.00000000
Si      -1.48618557       2.70490563      -1.54376334       0.00000000
Si       1.73411937      -3.18739914       0.11213492       0.00000000
Si       0.24474096      -1.98408942      -3.09096150       0.00000000
Si      -0.19144008       2.98885662       2.36201515       0.00000000
Si      -0.35795646      -2.21508162       3.10244561       0.00000000
Si      -2.46343896       0.97901271      -2.94243131       0.00000000
