10
Lattice="16.28999089631971 0.0 0.0 0.0 16.28999089631971 0.0 0.0 0.0 34.69518985606464" Properties=species:S:1:pos:R:3:initial_magmoms:R:1 pbc="T T T"
Si      -0.90075555      -1.06362297      -1.92929650       0.00000000
Si      -0.50510403      -0.62850078       2.24120643       0.00000000
Si       2.22210261      -0.85377519       0.15963266       0.00000000
Si      -0.13385493       2.43305811      -0.13801754       0.00000000
Si       2.14405722      -0.62667630       2.62077202       0.00000000
Si      -3.02689377      -0.12746925       1.71040443       0.00000000
Si       0.19401390      -2.89606878       2.11501996       0.00000000
Si       3.45797834       1.01887434      -0.58926343       0.00000000
Si       0.89213814       2.94585102      -2.29394315       0.00000000
Si      -0.59619771      -3.39856641      -1.71852310       0.00000000
