10
Lattice="16.28999089631971 0.0 0.0 0.0 16.28999089631971 0.0 0.0 0.0 34.69518985606464" Properties=species:S:1:pos:R:3:initial_magmoms:R:1 pbc="T T T"
Si       0.69911793      -2.26756800      -0.12618648       0.00000000
Si       0.50510403       0.62850078      -2.24120643       0.00000000
Si      -0.31218156       1.37091753       2.10742170       0.00000000
Si      -2.52178974       0.50103153      -0.53080201       0.00000000
Si       2.64916125       0.00182448       0.37956559       0.00000000
Si      -2.00327904       2.68201818       0.72342981       0.00000000
Si       2.72720664      -0.22527441      -2.08157377       0.00000000
Si      -1.26469044      -3.29079177       0.52084448       0.00000000
Si      -3.17575179      -1.62287496       0.36096896       0.00000000
Si       0.37124910       3.06155889      -2.37922397       0.00000000
