10
Lattice="16.28999089631971 0.0 0.0 0.0 16.28999089631971 0.0 0.0 0.0 34.69518985606464" Properties=species:S:1:pos:R:3:initial_magmoms:R:1 pbc="T T T"
Si       2.15072146       0.33695865       0.83809747       0.00000000
Si      -0.76397982      -2.18717685      -0.39205586       0.00000000
Si      -1.22066101       0.32156460       2.01593044       0.00000000
Si       0.10811021       1.17762039      -2.09860912       0.00000000
Si      -1.99232143      -1.77855849      -2.33807546       0.00000000
Si       2.21120623      -1.23616665       2.61199413       0.00000000
Si      -1.73901193       0.33917409      -3.26839280       0.00000000
Si       1.24315669      -3.44171699      -0.74487145       0.00000000
Si       2.20319155       2.68086159       1.48353245       0.00000000
Si      -1.63154680      -1.82803122       2.98968618       0.00000000
