10
Lattice="16.28999089631971 0.0 0.0 0.0 16.28999089631971 0.0 0.0 0.0 34.69518985606464" Properties=species:S:1:pos:R:3:initial_magmoms:R:1 pbc="T T T"
Si       1.58811210       1.54026837      -0.75288604       0.00000000
Si       0.39690585      -1.64815704      -1.62418683       0.00000000
Si      -1.88421217       1.28809917      -0.66125599       0.00000000
Si       0.90823266      -0.77543658       2.11057897       0.00000000
Si      -0.90297099      -2.31300081       2.20890519       0.00000000
Si       0.33642108      -0.07503174      -3.39808349       0.00000000
Si       2.95384941      -1.39328370       1.07249831       0.00000000
Si       0.93830400       3.34326186       0.60459872       0.00000000
Si      -3.18023490       1.04821263       1.26061573       0.00000000
Si       0.38889117       2.26887120      -2.75264851       0.00000000
