10
Lattice="16.28999089631971 0.0 0.0 0.0 16.28999089631971 0.0 0.0 0.0 34.69518985606464" Properties=species:S:1:pos:R:3:initial_magmoms:R:1 pbc="T T T"
Si      -1.29602273      -0.23988654       1.92187173       0.00000000
Si       1.88421217      -1.28809917       0.66125599       0.00000000
Si      -1.15074922      -1.37852496      -1.55899453       0.00000000
Si      -0.74920805       3.08832336       0.05884307       0.00000000
Si       2.27310334       0.98077203      -2.09139252       0.00000000
Si      -3.31851150      -0.10523340       0.60945605       0.00000000
Si       0.53251684       2.82564711      -1.95826700       0.00000000
Si       3.47232427       0.25216920      -0.09163005       0.00000000
Si      -2.95081362       2.21677578       0.36901825       0.00000000
Si       2.82251617       2.05516269       1.26585471       0.00000000
