10
Lattice="16.28999089631971 0.0 0.0 0.0 16.28999089631971 0.0 0.0 0.0 34.69518985606464" Properties=species:S:1:pos:R:3:initial_magmoms:R:1 pbc="T T T"
Si      -1.83414879      -0.80961300       1.18700087       0.00000000
Si      -0.10511676      -0.57822984      -2.32568927       0.00000000
Si       1.80294299      -1.57784940       0.18510106       0.00000000
Si       0.94113031       1.84888242       1.27058509       0.00000000
Si      -0.26310861      -2.01934098       2.69020550       0.00000000
Si       2.03546645      -1.68042753      -2.14315777       0.00000000
Si      -0.24179746       1.68078591      -3.09144723       0.00000000
Si       2.45226239       0.72104427       2.72988988       0.00000000
Si       1.00890486      -3.51726675       1.21550645       0.00000000
Si       3.68865710      -0.59347728       1.28149674       0.00000000
