10
Lattice="16.28999089631971 0.0 0.0 0.0 16.28999089631971 0.0 0.0 0.0 34.69518985606464" Properties=species:S:1:pos:R:3:initial_magmoms:R:1 pbc="T T T"
Si      -0.13668070       2.25901575      -0.76575796       0.00000000
Si       0.10511676       0.57822984       2.32568927       0.00000000
Si       2.14058321      -1.10219769       0.18253150       0.00000000
Si      -1.58942672      -1.53526734      -1.24923570       0.00000000
Si       1.90805975      -0.99961956       2.51079033       0.00000000
Si      -0.40229297      -1.02921849      -3.27286848       0.00000000
Si      -2.15916947       2.39366889      -2.07817364       0.00000000
Si       1.15934203       2.49890229      -2.68762969       0.00000000
Si       3.04355420       1.21080312      -2.02637370       0.00000000
Si      -1.72903202      -0.23138316       3.51269013       0.00000000
