10
Lattice="16.28999089631971 0.0 0.0 0.0 16.28999089631971 0.0 0.0 0.0 34.69518985606464" Properties=species:S:1:pos:R:3:initial_magmoms:R:1 pbc="T T T"
Si      -1.35723230       1.35723393      -1.35734598       0.00000000
Si       1.35684297       1.35725022       1.35842153       0.00000000
Si       1.35791811      -1.35782037      -1.35699902       0.00000000
Si      -1.35832862      -1.35984033       1.35908074       0.00000000
Si      -0.00154755       2.71077003      -2.71427561       0.00000000
Si       2.71344159      -0.00140094      -2.71413683       0.00000000
Si      -2.71479077      -2.71490769       0.00079799       0.00000000
Si       0.00000000      -2.71552671      -2.71451848       0.00000000
Si       2.71542897       2.71471221      -0.00034695       0.00000000
Si      -2.71536726       2.71505430      -0.00048573       0.00000000
