10
Lattice="16.28999089631971 0.0 0.0 0.0 16.28999089631971 0.0 0.0 0.0 34.69518985606464" Properties=species:S:1:pos:R:3:initial_magmoms:R:1 pbc="T T T"
Si      -1.35799119      -1.33320618      -1.37670590       0.00000000
Si       1.36291914       1.37777562      -1.37538748       0.00000000
Si      -1.38855050       1.30370499       1.47843226       0.00000000
Si       0.98080461      -1.82607642       1.26727721       0.00000000
Si       2.52703512      -0.74440413       2.70626102       0.00000000
Si      -2.68943732      -2.70969489      -0.00912484       0.00000000
Si       2.71427238       2.71894761       0.00204702       0.00000000
Si       0.00621952      -2.70194085      -2.73262938       0.00000000
Si      -2.70805679       0.01241298      -2.73661932       0.00000000
Si      -2.72156120       2.72958498       0.00909014       0.00000000
