10
Lattice="16.28999089631971 0.0 0.0 0.0 16.28999089631971 0.0 0.0 0.0 34.69518985606464" Properties=species:S:1:pos:R:3:initial_magmoms:R:1 pbc="T T T"
Si       1.50646662       0.74722230       1.62113365       0.00000000
Si       0.22678938       1.76656905      -1.54254900       0.00000000
Si      -1.79155954      -1.15473294       1.06021620       0.00000000
Si       0.57034548      -1.69619625      -1.57092968       0.00000000
Si       0.76191588      -3.54274920      -0.12906618       0.00000000
Si       3.41076762       1.39567833       0.36780391       0.00000000
Si      -3.55613048      -1.02019383      -0.49107599       0.00000000
Si       2.62150083       1.94266395      -1.81924330       0.00000000
Si      -0.67872285       1.06706016      -3.64376027       0.00000000
Si       0.66152061       2.76464106       2.64523214       0.00000000
