10
Lattice="10.86 0.0 0.0 0.0 10.86 0.0 0.0 0.0 10.86" Properties=species:S:1:pos:R:3:initial_magmoms:R:1 pbc="T T T"
Si       0.42863334      -1.04844612      -2.09149482       0.00000000
Si       1.77618558       0.47792688       1.67556768       0.00000000
Si      -2.28636666      -1.04844612       0.62350518       0.00000000
Si       1.78613334      -2.40594612      -0.73399482       0.00000000
Si      -0.92886666      -2.40594612       1.98100518       0.00000000
Si       1.42929546       0.80472600      -2.92968048       0.00000000
Si       3.14363334      -1.04844612       0.62350518       0.00000000
Si      -2.28636666       1.66655388      -2.09149482       0.00000000
Si       0.42863334      -1.04844612       3.33850518       0.00000000
Si       0.42863334      -3.76344612       0.62350518       0.00000000
