10
Lattice="10.86 0.0 0.0 0.0 10.86 0.0 0.0 0.0 10.86" Properties=species:S:1:pos:R:3:initial_magmoms:R:1 pbc="T T T"
Si       0.95426820       1.30394934      -1.56754326       0.00000000
Si       1.30185336      -1.57486290       1.03407834       0.00000000
Si      -2.03972520      -0.91397760      -1.31808906       0.00000000
Si       2.38961268      -0.05214972       2.23509660       0.00000000
Si      -0.32538732      -2.76714972       2.23509660       0.00000000
Si       2.38961268       2.66285028      -0.47990340       0.00000000
Si       2.38961268      -2.76714972      -0.47990340       0.00000000
Si      -1.69283508      -1.24077672       3.28715910       0.00000000
Si      -2.97818124       2.54575776      -0.24882432       0.00000000
Si       0.93483966       1.13947464       3.70189164       0.00000000
