10
Lattice="10.86 0.0 0.0 0.0 10.86 0.0 0.0 0.0 10.86" Properties=species:S:1:pos:R:3:initial_magmoms:R:1 pbc="T T T"
Si      -1.23493404      -1.47765504      -1.19206962       0.00000000
Si       1.45097202       1.19817294      -1.30950966       0.00000000
Si       1.57253886      -1.28702946       1.25023578       0.00000000
Si      -1.48500726       1.19433936       1.46124558       0.00000000
Si       0.06293370       2.47851264      -2.62994448       0.00000000
Si      -2.65206630       2.47851264       0.08505552       0.00000000
Si       2.77793370       2.47851264       0.08505552       0.00000000
Si       0.06293370       2.47851264       2.80005552       0.00000000
Si      -2.65206630      -0.23648736      -2.62994448       0.00000000
Si       2.77793370      -0.23648736      -2.62994448       0.00000000
