10
Lattice="16.28999089631971 0.0 0.0 0.0 16.28999089631971 0.0 0.0 0.0 34.64500226677339" Properties=species:S:1:pos:R:3:initial_magmoms:R:1 pbc="T T T"
Si       2.00851721       0.92543490       0.72311089       0.00000000
Si      -1.73538810      -0.91812069       1.26468187       0.00000000
Si       0.87413699      -2.02489587      -0.82811995       0.00000000
Si      -0.44634411       1.82177001      -1.56553924       0.00000000
Si      -2.71589949      -1.10381040      -1.04856622       0.00000000
Si       1.85415317      -0.89687853      -2.66475648       0.00000000
Si       3.14637371       0.61084242      -1.36913661       0.00000000
Si      -1.25955720       0.35481249       3.27523641       0.00000000
Si       0.15174195       0.51919488      -3.54927853       0.00000000
Si       2.50480835      -2.56604967       0.78249246       0.00000000
