10
Lattice="16.28999089631971 0.0 0.0 0.0 16.28999089631971 0.0 0.0 0.0 34.64500226677339" Properties=species:S:1:pos:R:3:initial_magmoms:R:1 pbc="T T T"
Si      -1.35083662       1.36105877      -1.35687227       0.00000000
Si       1.36248835      -1.35447350      -1.35642189       0.00000000
Si      -1.33558918      -1.35636314       1.38334107       0.00000000
Si       1.37390927       1.34857411       1.36664217       0.00000000
Si      -2.71106791       0.00122951      -2.71443744       0.00000000
Si      -2.71092130      -2.71507946       0.00207870       0.00000000
Si      -2.71212676       2.71576938       0.00322199       0.00000000
Si       0.00390049      -2.71393916      -2.71419493       0.00000000
Si       2.71489392      -2.71441157       0.00422669       0.00000000
Si       0.00393531       2.71583454      -2.71412564       0.00000000
