10
Lattice="16.28999089631971 0.0 0.0 0.0 16.28999089631971 0.0 0.0 0.0 34.64500226677339" Properties=species:S:1:pos:R:3:initial_magmoms:R:1 pbc="T T T"
Si       1.35728280       1.35638685      -1.35808485       0.00000000
Si      -1.35866745       1.35865116       1.35763446       0.00000000
Si      -1.35778779      -1.35925389      -1.35811949       0.00000000
Si       1.35610992      -1.35876519       1.36314302       0.00000000
Si      -2.71244790      -2.71632655      -0.00138580       0.00000000
Si      -2.71394658       2.71516833      -0.00048503       0.00000000
Si       2.71397916      -0.00083079      -2.71526893       0.00000000
Si      -0.00004887       2.71332756      -2.71606576       0.00000000
Si      -2.71498914      -0.00188964      -2.71547680       0.00000000
Si      -0.00089595      -2.71610175      -2.71533822       0.00000000
