10
Lattice="16.28999089631971 0.0 0.0 0.0 16.28999089631971 0.0 0.0 0.0 34.64500226677339" Properties=species:S:1:pos:R:3:initial_magmoms:R:1 pbc="T T T"
Si       0.80508438       1.77845556      -1.44112896       0.00000000
Si       1.78860942      -1.72325394      -0.23160197       0.00000000
Si      -1.87388757      -0.96990660      -1.40838942       0.00000000
Si       0.42593463       1.30893408       2.15672189       0.00000000
Si      -0.12484656      -2.36677410       2.20335409       0.00000000
Si       2.11504473       0.37155861      -2.89774425       0.00000000
Si      -1.66576653       2.61796494       1.90367465       0.00000000
Si       0.47081358      -0.60944148       3.66970463       0.00000000
Si      -0.62219655      -2.37159594      -2.89081525       0.00000000
Si       3.59411157      -0.76655853      -1.41050277       0.00000000
