10
Lattice="16.28999089631971 0.0 0.0 0.0 16.28999089631971 0.0 0.0 0.0 34.64500226677339" Properties=species:S:1:pos:R:3:initial_magmoms:R:1 pbc="T T T"
Si      -2.04284745       0.23812722      -1.15118478       0.00000000
Si       0.80736498      -2.24321445      -0.29361656       0.00000000
Si       0.89606403       2.07720306      -0.82486332       0.00000000
Si      -0.32081526       0.25140357       2.40637391       0.00000000
Si      -2.34567855       2.58833439      -0.65215789       0.00000000
Si      -3.53955636      -1.15098624      -0.06433581       0.00000000
Si       1.77647337      -0.31227930       3.27371203       0.00000000
Si      -0.57171384      -3.51987804       1.12388450       0.00000000
Si      -0.28152378       2.58610266       2.72715217       0.00000000
Si       2.67832035       1.47172005      -2.21634597       0.00000000
