10
Lattice="16.28999089631971 0.0 0.0 0.0 16.28999089631971 0.0 0.0 0.0 34.64500226677339" Properties=species:S:1:pos:R:3:initial_magmoms:R:1 pbc="T T T"
Si      -1.35607734      -1.35624024      -1.35770375       0.00000000
Si      -1.35669636       1.35721764       1.35718408       0.00000000
Si       1.35769005      -1.35786924       1.35711479       0.00000000
Si       1.35928647       1.35788553      -1.35676834       0.00000000
Si      -2.71402803       2.71415835      -0.00079684       0.00000000
Si       0.00285075      -2.71499728       2.71405635       0.00000000
Si      -2.71397916       0.00083079       2.71526893       0.00000000
Si       2.71516833       2.71487511      -0.00024252       0.00000000
Si      -2.71487511      -2.71527096      -0.00006929       0.00000000
Si       0.00366525       2.71660185       2.71367525       0.00000000
