10
Lattice="16.28999089631971 0.0 0.0 0.0 16.28999089631971 0.0 0.0 0.0 34.64500226677339" Properties=species:S:1:pos:R:3:initial_magmoms:R:1 pbc="T T T"
Si      -1.34125344      -1.34056926       1.37769393       0.00000000
Si      -1.34830701       1.35868374      -1.35905491       0.00000000
Si       1.36495539      -1.35672894      -1.35874310       0.00000000
Si       1.37122704       1.37590227       1.38351429       0.00000000
Si       0.12426012      -2.50015662       2.84768220       0.00000000
Si      -2.70796815       2.71129131       0.00377631       0.00000000
Si      -2.70866862      -0.00070047      -2.71554609       0.00000000
Si      -2.70984150      -2.71585251       0.00568178       0.00000000
Si       0.00604359       2.71404432      -2.71537286       0.00000000
Si       2.71738377       2.71347417       0.00162832       0.00000000
