10
Lattice="16.28999089631971 0.0 0.0 0.0 16.28999089631971 0.0 0.0 0.0 34.64500226677339" Properties=species:S:1:pos:R:3:initial_magmoms:R:1 pbc="T T T"
Si      -1.42589628      -1.17203292       1.61740283       0.00000000
Si      -2.09249937      -0.12932631      -1.36442489       0.00000000
Si       1.24005996      -1.29402873      -1.74493116       0.00000000
Si       2.34631386       0.25730055       0.95890491       0.00000000
Si      -0.93224412       2.45006487       0.01299188       0.00000000
Si       1.65459159       0.63482130       3.18439716       0.00000000
Si       0.06121782      -1.09638216       3.49138670       0.00000000
Si      -3.10454820       1.88990064      -0.77074780       0.00000000
Si      -1.27861839       0.48547458      -3.47808301       0.00000000
Si       2.96544789       0.24674463      -2.33143673       0.00000000
