10
Lattice="16.28999089631971 0.0 0.0 0.0 16.28999089631971 0.0 0.0 0.0 34.64500226677339" Properties=species:S:1:pos:R:3:initial_magmoms:R:1 pbc="T T T"
Si      -1.59115833       0.95232969      -1.47684798       0.00000000
Si      -1.94624775      -1.32677163       0.37787325       0.00000000
Si       1.30921101      -1.73481984      -1.24431060       0.00000000
Si       0.77737509       1.20402648       2.24461631       0.00000000
Si       0.21434382       1.90902510      -2.65574878       0.00000000
Si       2.23451559      -2.23474365       0.88064180       0.00000000
Si       2.27631573      -0.56694087       2.65581807       0.00000000
Si      -3.50461431       0.30880953       0.95810807       0.00000000
Si      -1.25413452      -2.78399358       2.03671153       0.00000000
Si       1.64527371       3.21685146      -1.08643323       0.00000000
