10
Lattice="16.28999089631971 0.0 0.0 0.0 16.28999089631971 0.0 0.0 0.0 34.64500226677339" Properties=species:S:1:pos:R:3:initial_magmoms:R:1 pbc="T T T"
Si       1.94745321      -0.61427961       1.09460946       0.00000000
Si       0.07289775      -1.05580377      -2.09131209       0.00000000
Si      -1.37907882      -1.27666359       1.41750106       0.00000000
Si      -0.80736498       2.24321445       0.29361656       0.00000000
Si       1.31538492      -0.35512200       3.33129205       0.00000000
Si       3.53007558       1.06937334       0.70166562       0.00000000
Si       1.31455413       0.31713372      -3.54910531       0.00000000
Si      -2.13954489      -3.13875720       0.22633593       0.00000000
Si      -1.12818024       2.49461802       2.69999047       0.00000000
Si      -2.85021243       2.48134167      -0.85756822       0.00000000
