10
Lattice="16.28999089631971 0.0 0.0 0.0 16.28999089631971 0.0 0.0 0.0 34.64500226677339" Properties=species:S:1:pos:R:3:initial_magmoms:R:1 pbc="T T T"
Si       1.58838903       0.70705116       1.59048365       0.00000000
Si       0.83812050      -2.08034703      -0.75827559       0.00000000
Si      -0.60839892       1.98509940      -1.24503814       0.00000000
Si      -1.66338819      -1.37901366       1.33047277       0.00000000
Si       1.18156257      -1.10297961      -2.85156244       0.00000000
Si       1.66561992       2.75185341      -1.43295274       0.00000000
Si      -0.66578859      -3.44171862       0.36221370       0.00000000
Si      -0.09420507       0.92782953       3.53846928       0.00000000
Si       3.23045361       1.95980103       0.19037439       0.00000000
Si      -0.92128095      -0.73774152      -3.73622307       0.00000000
