10
Lattice="16.28999089631971 0.0 0.0 0.0 16.28999089631971 0.0 0.0 0.0 34.64500226677339" Properties=species:S:1:pos:R:3:initial_magmoms:R:1 pbc="T T T"
Si      -1.33661079      -1.33789770       1.37267040       0.00000000
Si      -1.34902377       1.35724926      -1.35874310       0.00000000
Si       1.36625859      -1.35602847      -1.35811949       0.00000000
Si       1.35536058       1.37451666       1.37665458       0.00000000
Si       0.14245605      -2.47601484       2.85991189       0.00000000
Si      -2.70974376       2.71431215       0.00561249       0.00000000
Si      -2.70888039      -0.00089691      -2.71599647       0.00000000
Si      -2.70723510      -2.71800279       0.00408811       0.00000000
Si       0.00581553       2.71437731      -2.71568467       0.00000000
Si       0.00604359      -2.71555929      -2.71551144       0.00000000
