10
Lattice="16.28999089631971 0.0 0.0 0.0 16.28999089631971 0.0 0.0 0.0 34.64500226677339" Properties=species:S:1:pos:R:3:initial_magmoms:R:1 pbc="T T T"
Si       1.78225632      -0.60548301      -1.39148265       0.00000000
Si      -0.89606403      -2.07720306       0.82486332       0.00000000
Si       0.32781996       1.43193987       1.90869818       0.00000000
Si      -1.60306632       1.23621552      -1.33133889       0.00000000
Si      -3.24174258       0.51113133       0.17270543       0.00000000
Si      -2.93891148      -1.83907584      -0.32632146       0.00000000
Si       2.60692128       1.57050261      -1.69999657       0.00000000
Si       2.57491143       0.82538172       2.41267931       0.00000000
Si      -1.17758781       0.50889960       3.55201549       0.00000000
Si       1.08602172      -1.58926869      -3.38935711       0.00000000
