10
Lattice="16.28999089631971 0.0 0.0 0.0 16.28999089631971 0.0 0.0 0.0 34.64500226677339" Properties=species:S:1:pos:R:3:initial_magmoms:R:1 pbc="T T T"
Si      -1.49514507      -1.85651170      -0.01323440       0.00000000
Si       0.50945346       1.09804537       2.09657813       0.00000000
Si      -1.59568695       1.73599435      -0.57749787       0.00000000
Si       2.08987668      -0.85600203      -0.95817736       0.00000000
Si      -1.68656886       1.13570785       3.08042745       0.00000000
Si       2.53622079      -2.67777205       0.60736187       0.00000000
Si      -0.58011948      -1.65583519      -3.33704313       0.00000000
Si      -0.17967870      -3.78158245      -0.44120435       0.00000000
Si      -2.61853605      -1.78332073      -2.12824368       0.00000000
Si      -0.31291461       3.66170041      -1.13289221       0.00000000
