10
Lattice="16.28999089631971 0.0 0.0 0.0 16.28999089631971 0.0 0.0 0.0 34.64500226677339" Properties=species:S:1:pos:R:3:initial_magmoms:R:1 pbc="T T T"
Si       1.35567529       1.35684297       1.35666440       0.00000000
Si       1.35352013      -1.35979146      -1.35971316       0.00000000
Si      -1.35900501      -1.35812988       1.35697621       0.00000000
Si      -1.35631716       1.35769005      -1.36310838       0.00000000
Si      -0.00051054      -2.69693982      -2.70569997       0.00000000
Si      -0.00158300       2.71410948       2.71325951       0.00000000
Si       2.71335557      -0.00086337       2.71429886       0.00000000
Si       2.71338815       2.71554300      -0.00048503       0.00000000
Si       2.71417007      -2.71495656      -0.00086613       0.00000000
Si      -2.71615749      -0.00081450       2.71405635       0.00000000
