10
Lattice="16.28999089631971 0.0 0.0 0.0 16.28999089631971 0.0 0.0 0.0 34.64500226677339" Properties=species:S:1:pos:R:3:initial_magmoms:R:1 pbc="T T T"
Si       1.23388605      -1.46469906       1.38931733       0.00000000
Si      -1.46582307       1.28306556       1.38377067       0.00000000
Si      -1.57319046      -0.95272065      -1.54638889       0.00000000
Si       1.74853602       0.78682329      -1.45298592       0.00000000
Si       2.59529022      -0.09277155       2.75529085       0.00000000
Si      -2.67672393      -2.69421939      -0.05155872       0.00000000
Si       2.75742459       2.60255556      -0.26141748       0.00000000
Si      -0.12479769       2.62024650       2.75678059       0.00000000
Si       2.71564074      -2.72184723      -0.02648612       0.00000000
Si      -2.74908411       2.68920207      -0.08640815       0.00000000
