10
Lattice="16.28999089631971 0.0 0.0 0.0 16.28999089631971 0.0 0.0 0.0 34.64500226677339" Properties=species:S:1:pos:R:3:initial_magmoms:R:1 pbc="T T T"
Si       1.22771214      -2.02743711      -0.06128704       0.00000000
Si       0.42614640       1.19208591       2.01083170       0.00000000
Si      -1.78248438       0.21131388      -1.69320614       0.00000000
Si      -0.79285059      -2.20017627       0.99008543       0.00000000
Si       1.26623799       2.41991208      -1.63070652       0.00000000
Si      -0.17578539       1.09481832      -3.10713876       0.00000000
Si      -3.14864523       1.83770748      -0.50058592       0.00000000
Si       3.20173664       0.61639731      -1.75393886       0.00000000
Si      -1.50340410       2.36677410       2.79141868       0.00000000
Si       1.32813999      -3.18142397      -2.03380135       0.00000000
