10
Lattice="16.28999089631971 0.0 0.0 0.0 16.28999089631971 0.0 0.0 0.0 34.64500226677339" Properties=species:S:1:pos:R:3:initial_magmoms:R:1 pbc="T T T"
Si      -1.60669899      -0.88350444       1.41393262       0.00000000
Si      -1.51148394       1.21880151      -1.35500144       0.00000000
Si       1.20228345      -1.51635465      -1.37675851       0.00000000
Si       1.44202338       1.32509376       1.47643224       0.00000000
Si       0.17578539      -1.09481832       3.10713876       0.00000000
Si       3.37752203      -0.47842101       1.35319990       0.00000000
Si       2.55366785      -0.15830622      -2.73619452       0.00000000
Si      -0.16532721       2.55637341      -2.73688742       0.00000000
Si       2.68432682       2.73419505       0.00841874       0.00000000
Si      -2.75845086      -2.65725738       0.10916646       0.00000000
