10
Lattice="16.28999089631971 0.0 0.0 0.0 16.28999089631971 0.0 0.0 0.0 34.64500226677339" Properties=species:S:1:pos:R:3:initial_magmoms:R:1 pbc="T T T"
Si       1.24230344       1.40910129      -1.46801350       0.00000000
Si      -1.44202338      -1.32509376      -1.47643224       0.00000000
Si      -0.11577303       1.76365314       1.76537172       0.00000000
Si       1.93549865      -1.80351477      -0.12323234       0.00000000
Si      -1.26623799      -2.41991208       1.63070652       0.00000000
Si      -3.04872237      -2.20859820      -0.06249962       0.00000000
Si       2.48852134      -0.12106728      -2.83198800       0.00000000
Si       0.60738894       0.64063683       3.69579233       0.00000000
Si       2.50026155       2.87319762       0.01358085       0.00000000
Si      -0.24475725       2.59546941      -2.85090418       0.00000000
