10
Lattice="16.28999089631971 0.0 0.0 0.0 16.28999089631971 0.0 0.0 0.0 34.64500226677339" Properties=species:S:1:pos:R:3:initial_magmoms:R:1 pbc="T T T"
Si      -0.92774808       1.15792578      -1.76194186       0.00000000
Si      -1.72538793      -1.54077336       0.58650557       0.00000000
Si       1.92955050      -1.17468819      -0.78058698       0.00000000
Si       0.48405735       1.48116825       1.82212027       0.00000000
Si      -0.61913403       0.01055592       3.29034164       0.00000000
Si       3.37703103       0.69377481      -0.72633288       0.00000000
Si       2.83413420       1.49946192       1.47774875       0.00000000
Si       2.17722366      -2.61461016       1.14661164       0.00000000
Si      -2.81461878      -1.60459758      -1.57201786       0.00000000
Si       0.60743781       2.81098611      -2.24070142       0.00000000
