10
Lattice="16.28999089631971 0.0 0.0 0.0 16.28999089631971 0.0 0.0 0.0 34.64500226677339" Properties=species:S:1:pos:R:3:initial_magmoms:R:1 pbc="T T T"
Si       1.35425055       1.35402480      -1.36418237       0.00000000
Si       1.48706069      -1.18636812       1.38289068       0.00000000
Si      -1.36259334      -1.36418976      -1.36241548       0.00000000
Si      -1.27754325       1.49201739       1.34474651       0.00000000
Si      -2.70875007      -2.70176166       0.01947050       0.00000000
Si       2.71368661       2.71081890       0.00190548       0.00000000
Si      -0.00162900       2.70930393      -2.72209399       0.00000000
Si      -2.71381626      -0.00325800      -2.72233651       0.00000000
Si       2.71535959      -0.00417024      -2.72199006       0.00000000
Si      -0.00034209      -2.71806795      -2.72119322       0.00000000
