10
Lattice="16.28999089631971 0.0 0.0 0.0 16.28999089631971 0.0 0.0 0.0 34.64500226677339" Properties=species:S:1:pos:R:3:initial_magmoms:R:1 pbc="T T T"
Si       1.34548884       1.34969070       1.34975965       0.00000000
Si       1.44536283      -1.20961395      -1.39229334       0.00000000
Si      -1.08634752       1.51119791      -1.43373225       0.00000000
Si      -1.36778985      -1.36827855       1.34667624       0.00000000
Si      -2.02318542      -0.24395904      -2.62345511       0.00000000
Si      -0.21610314      -2.07581841      -2.84181822       0.00000000
Si       2.44475433       0.46604780      -2.74228307       0.00000000
Si       0.78454269       2.31053192      -2.82394139       0.00000000
Si      -2.69926929       2.70404945      -0.03661286       0.00000000
Si      -0.00731421       2.70626489       2.70607760       0.00000000
