10
Lattice="16.28999089631971 0.0 0.0 0.0 16.28999089631971 0.0 0.0 0.0 34.64500226677339" Properties=species:S:1:pos:R:3:initial_magmoms:R:1 pbc="T T T"
Si       1.16673867       1.21169681      -1.68319373       0.00000000
Si      -0.69905277       1.61901001       1.75244913       0.00000000
Si      -1.43092989      -1.30782636      -1.56931554       0.00000000
Si       0.47223081      -0.02482596       3.11133081       0.00000000
Si       2.57574222      -0.66305187       1.91198945       0.00000000
Si       2.39163264      -2.54681118      -0.25180002       0.00000000
Si      -1.64527371      -3.21685146       1.08643323       0.00000000
Si       2.81334816       2.47921161      -0.61744358       0.00000000
Si       2.52320697      -0.19005543      -3.04741075       0.00000000
Si      -3.23643204      -2.26452177      -0.39041475       0.00000000
