10
Lattice="16.28999089631971 0.0 0.0 0.0 16.28999089631971 0.0 0.0 0.0 34.64500226677339" Properties=species:S:1:pos:R:3:initial_magmoms:R:1 pbc="T T T"
Si      -2.17451952       0.81907749      -0.18167849       0.00000000
Si       0.43095195      -0.16434981       2.29509410       0.00000000
Si       1.24286184       1.88884179      -0.68285338       0.00000000
Si       0.95936697      -1.99368423      -0.87392067       0.00000000
Si       3.23957601       0.81049266      -1.18032124       0.00000000
Si       2.47910994      -1.05160095      -2.37148638       0.00000000
Si       2.39155119       1.25108829       2.48955661       0.00000000
Si      -1.89078030       3.13229007       0.52341699       0.00000000
Si       1.04285322      -2.47032963       2.64268760       0.00000000
Si      -2.66521179       1.04860359      -2.49302111       0.00000000
