10
Lattice="16.28999089631971 0.0 0.0 0.0 16.28999089631971 0.0 0.0 0.0 34.64500226677339" Properties=species:S:1:pos:R:3:initial_magmoms:R:1 pbc="T T T"
Si      -1.68919155       0.54713223      -1.61210215       0.00000000
Si       0.67805496       2.31619365       0.42086772       0.00000000
Si      -0.14499729      -0.34787295       2.47046720       0.00000000
Si       1.23732324      -1.90835721      -1.18891321       0.00000000
Si       2.22374790      -0.29651058       2.32135503       0.00000000
Si       2.71448415      -2.09043054       0.75761733       0.00000000
Si      -0.30472074       1.76316444      -3.05873967       0.00000000
Si      -1.34793234      -2.35499643       2.52420163       0.00000000
Si       2.51952543       2.01596895       1.96430344       0.00000000
Si      -3.47898104       1.61160228      -0.46012053       0.00000000
