10
Lattice="16.28999089631971 0.0 0.0 0.0 16.28999089631971 0.0 0.0 0.0 34.64500226677339" Properties=species:S:1:pos:R:3:initial_magmoms:R:1 pbc="T T T"
Si       2.17451952      -0.81907749       0.18167849       0.00000000
Si      -1.79378054      -0.92616795       1.22321178       0.00000000
Si      -0.49069227       0.22952610      -2.31134262       0.00000000
Si       0.28373922       2.31321258       0.70509548       0.00000000
Si      -3.39005393      -0.64423692      -0.59703766       0.00000000
Si       3.41738136       1.06976430      -0.50117488       0.00000000
Si       2.60547147      -0.98342730       2.47677260       0.00000000
Si      -1.53142192       0.04491153       3.45802354       0.00000000
Si       1.47662334       0.69346530      -3.47856804       0.00000000
Si       0.85836897       3.69849789      -1.12928912       0.00000000
