10
Lattice="16.28999089631971 0.0 0.0 0.0 16.28999089631971 0.0 0.0 0.0 34.64500226677339" Properties=species:S:1:pos:R:3:initial_magmoms:R:1 pbc="T T T"
Si       1.35746199       1.35602847       1.35756517       0.00000000
Si      -1.35785132      -1.35837423       1.35784233       0.00000000
Si      -1.36064994       1.35516510      -1.35884704       0.00000000
Si       1.35964485      -1.35806146      -1.35773840       0.00000000
Si      -2.71468061       0.01801674      -2.70483384       0.00000000
Si      -2.71438534      -2.71302453      -0.00017323       0.00000000
Si      -2.71417007       2.71495656       0.00086613       0.00000000
Si      -0.00081450       2.71409319       2.71516499       0.00000000
Si       2.71466334      -0.00133578       2.71492247       0.00000000
Si       2.71536381       2.71453302       0.00003465       0.00000000
