10
Lattice="16.28999089631971 0.0 0.0 0.0 16.28999089631971 0.0 0.0 0.0 34.64500226677339" Properties=species:S:1:pos:R:3:initial_magmoms:R:1 pbc="T T T"
Si       1.35629888       1.35592586      -1.35728801       0.00000000
Si       1.35240557      -1.35993807       1.36064858       0.00000000
Si      -1.36248835       1.35447350       1.35642189       0.00000000
Si      -1.35858786      -1.35946566      -1.35777304       0.00000000
Si       0.01142092       2.70304761       2.72306405       0.00000000
Si      -0.00083568       2.71313927      -2.71478389       0.00000000
Si      -2.71332497       2.71553227      -0.00045039       0.00000000
Si       2.71434731      -0.00228060      -2.71506105       0.00000000
Si       2.71701887       2.71310506      -0.00097006       0.00000000
Si      -2.71619201      -0.00161271      -2.71450673       0.00000000
