10
Lattice="16.28999089631971 0.0 0.0 0.0 16.28999089631971 0.0 0.0 0.0 34.64500226677339" Properties=species:S:1:pos:R:3:initial_magmoms:R:1 pbc="T T T"
Si       1.17424021      -1.45038015      -1.48010461       0.00000000
Si      -1.65450267      -1.09403640       1.33144283       0.00000000
Si      -1.52292834       1.26271935      -1.46416790       0.00000000
Si       1.95641108       0.95123826       1.39314561       0.00000000
Si       2.59004321      -2.66743863      -0.06416258       0.00000000
Si       2.52755477      -0.09532908      -2.84328228       0.00000000
Si       2.67939386       2.72341907      -0.04202441       0.00000000
Si      -0.58421709      -2.81900079       2.53445656       0.00000000
Si      -1.47039309       0.78972291       3.49523230       0.00000000
Si      -0.18733915       2.61908249      -2.84750897       0.00000000
