10
Lattice="16.28999089631971 0.0 0.0 0.0 16.28999089631971 0.0 0.0 0.0 34.64500226677339" Properties=species:S:1:pos:R:3:initial_magmoms:R:1 pbc="T T T"
Si      -1.87528723      -1.34446257       0.33674961       0.00000000
Si       1.70241121      -1.41607341       0.88452205       0.00000000
Si      -0.59808607       1.30257513       1.98373929       0.00000000
Si       0.28356850       0.34686297      -2.41503517       0.00000000
Si      -3.26808223       0.50274198      -0.39512647       0.00000000
Si      -0.15174195      -0.51919488       3.54927853       0.00000000
Si       2.99463175       0.09164754       2.18014192       0.00000000
Si       0.98768094       3.09145823       1.94161095       0.00000000
Si       0.72239504      -2.54409075       2.72115858       0.00000000
Si      -1.40986564      -3.40645077      -0.93319830       0.00000000
