10
Lattice="10.86 0.0 0.0 0.0 10.86 0.0 0.0 0.0 10.86" Properties=species:S:1:pos:R:3:initial_magmoms:R:1 pbc="T T T"
Si      -1.35268902       1.30416654      -1.22522520       0.00000000
Si       1.36231098      -1.41083346      -1.22522520       0.00000000
Si       1.36231098       1.30416654       1.48977480       0.00000000
Si       0.14605614      -2.57780562      -2.55873546       0.00000000
Si      -2.65278306      -0.11463816      -2.48950296       0.00000000
Si       0.00481098       2.66166654      -2.58272520       0.00000000
Si       2.71981098      -0.05333346      -2.58272520       0.00000000
Si      -2.65415142       0.02675904       2.67701172       0.00000000
Si      -2.71018902       2.66166654       0.13227480       0.00000000
Si       2.71981098       2.66166654       0.13227480       0.00000000
