10
Lattice="10.86 0.0 0.0 0.0 10.86 0.0 0.0 0.0 10.86" Properties=species:S:1:pos:R:3:initial_magmoms:R:1 pbc="T T T"
Si      -1.28559594      -1.22597454       1.36300602       0.00000000
Si       1.42940406      -1.22597454      -1.35199398       0.00000000
Si      -1.28559594       1.48902546      -1.35199398       0.00000000
Si      -2.64309594      -2.58347454       0.00550602       0.00000000
Si       0.07190406      -2.58347454      -2.70949398       0.00000000
Si       0.07190406      -2.58347454       2.72050602       0.00000000
Si      -2.64309594       0.13152546      -2.70949398       0.00000000
Si       2.78690406      -2.58347454       0.00550602       0.00000000
Si      -2.50013490       2.86604088       0.14056098       0.00000000
Si      -2.63883882       0.23379408       2.80944942       0.00000000
