10
Lattice="10.86 0.0 0.0 0.0 10.86 0.0 0.0 0.0 10.86" Properties=species:S:1:pos:R:3:initial_magmoms:R:1 pbc="T T T"
Si      -1.39539054       1.42209528      -1.26821994       0.00000000
Si      -1.39539054      -1.29290472       1.44678006       0.00000000
Si       1.31960946       1.42209528       1.44678006       0.00000000
Si       2.26818702      -2.46334122      -0.07469508       0.00000000
Si      -2.87618412       0.32967702      -2.33637696       0.00000000
Si      -0.52053066      -3.49776708      -1.25388474       0.00000000
Si       2.59395444       0.00182448      -2.72637042       0.00000000
Si      -0.03789054       2.77959528      -2.62571994       0.00000000
Si      -2.70163134      -2.69409450      -0.30891270       0.00000000
Si      -0.03789054      -2.65040472       2.80428006       0.00000000
