10
Lattice="10.86 0.0 0.0 0.0 10.86 0.0 0.0 0.0 10.86" Properties=species:S:1:pos:R:3:initial_magmoms:R:1 pbc="T T T"
Si       0.32590860      -1.15135548      -2.15229996       0.00000000
Si       1.54316256       0.38877714       1.87982256       0.00000000
Si      -2.38909140      -1.15135548       0.56270004       0.00000000
Si       1.68340860      -2.50885548      -0.79479996       0.00000000
Si       3.04090860      -1.15135548       0.56270004       0.00000000
Si      -1.03159140      -2.50885548       1.92020004       0.00000000
Si      -0.86744250       2.73338598       1.81465170       0.00000000
Si       0.32590860      -1.15135548       3.27770004       0.00000000
Si      -2.38909140       1.56364452      -2.15229996       0.00000000
Si       0.32590860      -3.86635548       0.56270004       0.00000000
