10
Lattice="10.86 0.0 0.0 0.0 10.86 0.0 0.0 0.0 10.86" Properties=species:S:1:pos:R:3:initial_magmoms:R:1 pbc="T T T"
Si       1.41446070       1.20868542       1.28623668       0.00000000
Si      -1.30053930       1.20868542      -1.42876332       0.00000000
Si      -1.40731482      -1.42077036       1.36455900       0.00000000
Si       1.41446070      -1.50631458      -1.42876332       0.00000000
Si       0.13449024       2.28536754       2.68851246       0.00000000
Si      -2.27954658      -2.75335752       0.05617878       0.00000000
Si      -2.65065450       2.48886222      -0.10450578       0.00000000
Si       2.77196070       2.56618542      -0.07126332       0.00000000
Si      -0.01062108      -2.81865870       2.51865120       0.00000000
Si       0.05696070       2.56618542      -2.78626332       0.00000000
