10
Lattice="10.86 0.0 0.0 0.0 10.86 0.0 0.0 0.0 10.86" Properties=species:S:1:pos:R:3:initial_magmoms:R:1 pbc="T T T"
Si      -0.87223176      -1.33258716      -1.30838022       0.00000000
Si       1.39669374      -1.39788834       1.15409220       0.00000000
Si       1.40731482       1.42077036      -1.36455900       0.00000000
Si      -2.56483878       2.56550124      -0.03891138       0.00000000
Si      -2.60822448      -0.08554422      -2.79332232       0.00000000
Si      -2.60822448      -2.80054422      -0.07832232       0.00000000
Si       0.10677552       2.62945578      -2.79332232       0.00000000
Si       0.10677552      -2.80054422       2.63667768       0.00000000
Si       2.82177552       2.62945578      -0.07832232       0.00000000
Si       2.82177552      -0.08554422       2.63667768       0.00000000
