10
Lattice="16.28999089631971 0.0 0.0 0.0 16.28999089631971 0.0 0.0 0.0 34.61538196595647" Properties=species:S:1:pos:R:3:initial_magmoms:R:1 pbc="T T T"
Si       1.75816341       1.04831363       1.09312253       0.00000000
Si      -0.89075349      -1.84903459       1.09698907       0.00000000
Si       0.84546729      -0.64709323      -2.10526929       0.00000000
Si      -1.79792730       1.67062258      -0.15925978       0.00000000
Si      -2.28226158      -0.38028982       2.52254476       0.00000000
Si       0.45330183       2.34489826       2.55422823       0.00000000
Si       1.57742586       1.52067313      -2.88972351       0.00000000
Si      -1.16015751      -1.16949724      -3.38257759       0.00000000
Si      -1.03667931       3.48207058       1.14411101       0.00000000
Si       2.24029854       2.98431334      -0.79486865       0.00000000
