10
Lattice="16.28999089631971 0.0 0.0 0.0 16.28999089631971 0.0 0.0 0.0 34.61538196595647" Properties=species:S:1:pos:R:3:initial_magmoms:R:1 pbc="T T T"
Si      -1.75816341      -1.04831363      -1.09312253       0.00000000
Si      -1.30486158       1.29658463       1.46110570       0.00000000
Si       1.40025582      -1.40759514       1.42689530       0.00000000
Si       0.48213513       1.93599971      -1.88799118       0.00000000
Si      -2.79484272       2.43375695       0.05098849       0.00000000
Si       2.64316653       2.61771992       0.06057003       0.00000000
Si      -0.91269612      -1.69540686      -3.19839181       0.00000000
Si      -3.55609071       0.62230895      -1.25238231       0.00000000
Si       0.04561200       2.65943861       2.81871482       0.00000000
Si      -2.66685219      -0.05919949       2.81279559       0.00000000
