10
Lattice="16.28999089631971 0.0 0.0 0.0 16.28999089631971 0.0 0.0 0.0 34.61538196595647" Properties=species:S:1:pos:R:3:initial_magmoms:R:1 pbc="T T T"
Si      -0.76035204       1.25634996       1.77822778       0.00000000
Si      -0.07037280       1.08664074      -2.06525869       0.00000000
Si      -1.90084752      -1.41369507      -0.21679626       0.00000000
Si       2.11791177      -0.99882135       0.72830804       0.00000000
Si       2.27978550       1.05461460      -2.01928944       0.00000000
Si       0.18764451      -0.26057484       3.38974779       0.00000000
Si       2.40857424       0.15939765       2.77809365       0.00000000
Si       1.39611816      -3.04862512       1.54509305       0.00000000
Si      -1.44479268      -2.39852657      -2.43294348       0.00000000
Si      -2.40805296      -2.03098833       2.13255103       0.00000000
