10
Lattice="16.28999089631971 0.0 0.0 0.0 16.28999089631971 0.0 0.0 0.0 34.61538196595647" Properties=species:S:1:pos:R:3:initial_magmoms:R:1 pbc="T T T"
Si       1.31364189      -1.06934909       1.64437002       0.00000000
Si      -0.49339152       2.29556937       0.49039639       0.00000000
Si       1.52493948      -0.50980388      -1.79979318       0.00000000
Si      -1.64760318      -1.77369611      -0.12330006       0.00000000
Si      -0.15511338      -3.39560996      -0.99065817       0.00000000
Si       1.52765991      -3.18895502       0.60300029       0.00000000
Si       0.37594062      -2.23737467      -2.95303989       0.00000000
Si       3.55265352      -0.39969977       1.55031998       0.00000000
Si       0.20435805      -1.08365171       3.74362104       0.00000000
Si      -2.79292050       2.62487172       0.75465036       0.00000000
