10
Lattice="16.28999089631971 0.0 0.0 0.0 16.28999089631971 0.0 0.0 0.0 34.61538196595647" Properties=species:S:1:pos:R:3:initial_magmoms:R:1 pbc="T T T"
Si       0.53098884       1.55380536      -1.65378541       0.00000000
Si      -2.29952898       0.32930235       0.26425397       0.00000000
Si       0.62459118       1.03259052       2.06394330       0.00000000
Si       0.49339152      -2.29556937      -0.49039639       0.00000000
Si      -2.50090596      -0.87832096       2.31431650       0.00000000
Si       0.96503589       3.35774367       1.43795839       0.00000000
Si       0.13831839       3.72337272      -0.82682348       0.00000000
Si      -1.13233419       0.49298427       3.66244792       0.00000000
Si      -1.00149291       1.50190542      -3.45704013       0.00000000
Si       1.80703341      -3.36491846       1.15397363       0.00000000
