10
Lattice="16.28999089631971 0.0 0.0 0.0 16.28999089631971 0.0 0.0 0.0 34.61538196595647" Properties=species:S:1:pos:R:3:initial_magmoms:R:1 pbc="T T T"
Si      -1.34498385      -1.35578412      -1.36668527       0.00000000
Si       1.36394541       1.35796698      -1.36903912       0.00000000
Si       1.56032136      -1.13096583       1.37371220       0.00000000
Si      -1.35723393       1.24338312       1.49299687       0.00000000
Si       0.50583708       2.21625450       2.61920896       0.00000000
Si       2.46795129       0.72132120       2.65742436       0.00000000
Si      -2.38971042      -0.38600784       2.92555526       0.00000000
Si      -2.69948106       2.71942002       0.01651155       0.00000000
Si      -2.70620883       0.00560376      -2.72475131       0.00000000
Si      -2.72561022      -2.70879894       0.00491539       0.00000000
