10
Lattice="16.28999089631971 0.0 0.0 0.0 16.28999089631971 0.0 0.0 0.0 34.61538196595647" Properties=species:S:1:pos:R:3:initial_magmoms:R:1 pbc="T T T"
Si      -1.10372895       0.00975771       2.08588947       0.00000000
Si       1.78443918       0.83509056       1.30617755       0.00000000
Si      -1.86307101      -0.97287138      -1.12621208       0.00000000
Si       0.82880262       1.87092279      -1.25349291       0.00000000
Si       1.96211421      -1.49493330       0.03821540       0.00000000
Si      -2.89854486       1.24048350       1.38094682       0.00000000
Si      -0.50583708      -2.21625450      -2.61920896       0.00000000
Si       2.21667804       0.52215966      -2.63250127       0.00000000
Si       1.05448428      -3.34722033      -1.24549675       0.00000000
Si       2.95464762       2.41012179      -0.36304633       0.00000000
