10
Lattice="16.28999089631971 0.0 0.0 0.0 16.28999089631971 0.0 0.0 0.0 34.61538196595647" Properties=species:S:1:pos:R:3:initial_magmoms:R:1 pbc="T T T"
Si      -1.90099413      -0.14351490      -1.37783143       0.00000000
Si       0.36245250       2.31303339      -0.26359628       0.00000000
Si       1.74322548      -1.56362823      -0.35252325       0.00000000
Si      -0.14027319       1.13907825       3.26942465       0.00000000
Si       0.29317113       2.28620376      -2.63336665       0.00000000
Si      -3.13566210       1.59123978      -0.29582322       0.00000000
Si      -1.03421952       0.55671075      -3.47067860       0.00000000
Si       1.02547179      -2.69013060      -2.26969725       0.00000000
Si       3.70090881      -0.34647201      -0.16262316       0.00000000
Si      -1.71624924       3.26073672       0.86569657       0.00000000
