10
Lattice="16.28999089631971 0.0 0.0 0.0 16.28999089631971 0.0 0.0 0.0 34.61538196595647" Properties=species:S:1:pos:R:3:initial_magmoms:R:1 pbc="T T T"
Si       1.35612621       1.35786750      -1.35726989       0.00000000
Si       1.35702216      -1.35705474       1.35723527       0.00000000
Si      -1.35742941       1.35781443       1.35699296       0.00000000
Si      -1.35889551      -1.35656604      -1.35789296       0.00000000
Si       2.71318095       0.00006516       2.71422823       0.00000000
Si      -2.71449067       0.00026064       2.71388208       0.00000000
Si      -2.71316140      -0.00006516      -2.71523208       0.00000000
Si      -0.00021177       2.71446527       2.71429746       0.00000000
Si      -0.00249237      -2.71453302       2.71481669       0.00000000
Si       2.71489140      -2.71451673      -0.00045000       0.00000000
