10
Lattice="16.28999089631971 0.0 0.0 0.0 16.28999089631971 0.0 0.0 0.0 34.61538196595647" Properties=species:S:1:pos:R:3:initial_magmoms:R:1 pbc="T T T"
Si      -1.35870003       1.35654975      -1.36554297       0.00000000
Si       1.35988920      -1.35949824      -1.36658143       0.00000000
Si      -1.38034944      -1.34003169       1.36640835       0.00000000
Si       1.36132272       1.36391283       1.39558913       0.00000000
Si       2.71448415      -2.71544526      -0.01093847       0.00000000
Si      -2.71371852      -2.71713942      -0.00287308       0.00000000
Si       2.71585251       2.71534070      -0.00408462       0.00000000
Si      -2.71585251       2.71588509      -0.00550385       0.00000000
Si      -0.03046230      -2.70637173       2.72668978       0.00000000
Si      -0.00022806       2.71499767      -2.72222439       0.00000000
