10
Lattice="16.28999089631971 0.0 0.0 0.0 16.28999089631971 0.0 0.0 0.0 34.61538196595647" Properties=species:S:1:pos:R:3:initial_magmoms:R:1 pbc="T T T"
Si       1.89862231       0.71456411      -1.21247075       0.00000000
Si      -1.28459749      -1.65251040      -1.18054926       0.00000000
Si      -1.28329429       1.38786239       1.49297610       0.00000000
Si       1.41428803      -1.33634829       1.46933379       0.00000000
Si       2.65987030       2.52601211       0.09090004       0.00000000
Si      -2.66989909       2.64030275       0.10177274       0.00000000
Si      -0.84440030       3.49108058      -1.20575035       0.00000000
Si      -2.69803192      -2.78663649       0.20434510       0.00000000
Si      -2.64339526       0.03339613       2.85409176       0.00000000
Si       0.07157174      -2.68050714       2.85513022       0.00000000
