10
Lattice="16.28999089631971 0.0 0.0 0.0 16.28999089631971 0.0 0.0 0.0 34.61538196595647" Properties=species:S:1:pos:R:3:initial_magmoms:R:1 pbc="T T T"
Si       0.33762654      -2.27470302      -0.29717322       0.00000000
Si       1.68277329       0.20665494       1.59365846       0.00000000
Si       0.53105400       1.15823529      -1.96238172       0.00000000
Si      -1.49248980       1.62191385       0.86735811       0.00000000
Si      -2.91630096       1.52976132      -0.96400431       0.00000000
Si       1.68005286       2.88580608      -0.80913501       0.00000000
Si       0.71750934      -1.30390047       3.11957458       0.00000000
Si       0.15511338       3.39560996       0.99065817       0.00000000
Si       3.54441078      -0.83417832       0.53910026       0.00000000
Si       2.59740792      -2.45819358      -0.91595813       0.00000000
