10
Lattice="16.28999089631971 0.0 0.0 0.0 16.28999089631971 0.0 0.0 0.0 34.61538196595647" Properties=species:S:1:pos:R:3:initial_magmoms:R:1 pbc="T T T"
Si       1.23256656      -0.60116616      -1.89013937       0.00000000
Si      -0.53105400      -1.15823529       1.96238172       0.00000000
Si       1.14899886       1.72757079       1.15324671       0.00000000
Si      -2.09683251       0.76528791      -0.88965043       0.00000000
Si      -2.02354380       0.46367856       2.82973983       0.00000000
Si       1.85945463       1.57657878      -2.61664742       0.00000000
Si       2.00461482       2.89574691      -0.65942339       0.00000000
Si      -3.44735496       0.37152603       0.99837740       0.00000000
Si      -0.37594062       2.23737467       2.95303989       0.00000000
Si      -0.19342746      -3.43293831       1.66520850       0.00000000
