10
Lattice="16.28999089631971 0.0 0.0 0.0 16.28999089631971 0.0 0.0 0.0 34.61538196595647" Properties=species:S:1:pos:R:3:initial_magmoms:R:1 pbc="T T T"
Si       0.28230407      -2.30237973      -0.34494247       0.00000000
Si      -1.91054889       0.80285265       1.14410824       0.00000000
Si      -0.18434741       0.83893500      -2.28717803       0.00000000
Si       2.23620812       0.58914414       0.91353506       0.00000000
Si      -0.67440111       2.88751653       1.44439685       0.00000000
Si       2.52432935       2.28198465      -0.63896569       0.00000000
Si       2.50303832      -2.37002884      -1.05874666       0.00000000
Si       2.10030065       1.18107387      -2.68778207       0.00000000
Si      -0.75604985      -1.10452716      -3.50622861       0.00000000
Si       0.24234470      -3.41650170       1.68763928       0.00000000
