10
Lattice="16.28999089631971 0.0 0.0 0.0 16.28999089631971 0.0 0.0 0.0 34.61538196595647" Properties=species:S:1:pos:R:3:initial_magmoms:R:1 pbc="T T T"
Si       1.35630540       1.35797350      -1.35695835       0.00000000
Si      -1.35917244      -1.35711204      -1.35720065       0.00000000
Si       1.35690813      -1.35676901       1.36093912       0.00000000
Si      -1.36218609       1.35812011       1.36080066       0.00000000
Si       2.71321353       2.71563097      -0.00062308       0.00000000
Si       2.71396287      -2.71503868      -0.00110769       0.00000000
Si       2.71458189      -0.00076563      -2.71471285       0.00000000
Si      -0.00058644      -2.71523416      -2.71457439       0.00000000
Si      -0.00197109       2.71541920      -2.71516285       0.00000000
Si      -2.71577106      -0.00015150      -2.71498977       0.00000000
