10
Lattice="16.28999089631971 0.0 0.0 0.0 16.28999089631971 0.0 0.0 0.0 34.61538196595647" Properties=species:S:1:pos:R:3:initial_magmoms:R:1 pbc="T T T"
Si       1.77217281       0.84567906      -1.32684295       0.00000000
Si       0.89446761      -0.45888767       2.17183951       0.00000000
Si      -1.08139536      -1.75491356      -1.25671214       0.00000000
Si      -1.03972554       2.29540761       0.43629252       0.00000000
Si      -1.20159927       0.24197166       3.18389000       0.00000000
Si       2.11872627       1.61560962       2.14518565       0.00000000
Si       0.32474115       2.17152216      -2.75590518       0.00000000
Si      -2.41108290      -0.54449325      -2.76293210       0.00000000
Si       0.36246879       3.22107057       2.20361645       0.00000000
Si       3.58622721       1.59443262       0.14258084       0.00000000
