10
Lattice="16.28999089631971 0.0 0.0 0.0 16.28999089631971 0.0 0.0 0.0 34.61538196595647" Properties=species:S:1:pos:R:3:initial_magmoms:R:1 pbc="T T T"
Si       2.04708285       1.30653945       0.11886929       0.00000000
Si       0.85571370      -1.90357284      -1.26598907       0.00000000
Si      -0.20623140      -1.13762844       2.22559723       0.00000000
Si      -1.78619850       1.04412384      -1.51902766       0.00000000
Si       2.95044480      -2.39807534      -0.26487705       0.00000000
Si      -1.43791830      -0.14035464      -3.55306325       0.00000000
Si       3.84429339      -0.23068269      -0.59150798       0.00000000
Si      -0.36466794      -3.86476082      -0.69936957       0.00000000
Si      -0.58099914      -3.50339975       1.71709698       0.00000000
Si       1.99526436      -0.96177789       3.33228622       0.00000000
