10
Lattice="16.28999089631971 0.0 0.0 0.0 16.28999089631971 0.0 0.0 0.0 34.61538196595647" Properties=species:S:1:pos:R:3:initial_magmoms:R:1 pbc="T T T"
Si      -0.87058647      -1.79949277       1.32106218       0.00000000
Si       0.57826242       1.98374733       1.22625059       0.00000000
Si      -2.00969730       0.81570546      -1.05040435       0.00000000
Si       1.78652430      -0.54638289      -1.54592382       0.00000000
Si       0.43355835       3.29343075      -0.68701187       0.00000000
Si      -2.59144578      -0.77100570       2.50885506       0.00000000
Si      -3.76662267       0.27609921       0.54810026       0.00000000
Si       1.41175656      -2.91215420      -2.05442407       0.00000000
Si      -1.66925259       3.14085861      -1.67638927       0.00000000
Si       3.98802006      -0.37053234      -0.43923483       0.00000000
