10
Lattice="16.28999089631971 0.0 0.0 0.0 16.28999089631971 0.0 0.0 0.0 34.61538196595647" Properties=species:S:1:pos:R:3:initial_magmoms:R:1 pbc="T T T"
Si      -1.72085931       1.02848707       1.18779288       0.00000000
Si       1.34060184      -1.02995710       1.64405849       0.00000000
Si       0.87058647       1.79949277      -1.32106218       0.00000000
Si      -1.06595244      -1.79661337      -1.18218519       0.00000000
Si      -2.45281788      -1.13927929       1.97224711       0.00000000
Si      -0.41332617      -2.54007268       2.17727413       0.00000000
Si       3.25304784      -1.44023704       0.39281557       0.00000000
Si      -2.89603620       2.07559198      -0.77296191       0.00000000
Si      -1.13911083       2.61519823      -2.37146653       0.00000000
Si       0.04333140      -1.78231075      -3.28143620       0.00000000
