10
Lattice="16.28999089631971 0.0 0.0 0.0 16.28999089631971 0.0 0.0 0.0 34.61538196595647" Properties=species:S:1:pos:R:3:initial_magmoms:R:1 pbc="T T T"
Si      -1.35739683       1.35228177       1.35834296       0.00000000
Si       1.35830907      -1.36153449       1.35723527       0.00000000
Si      -1.35964485      -1.37407779      -1.34912142       0.00000000
Si       1.33421616       1.38688173      -1.36276335       0.00000000
Si       2.59647939       0.09762597      -2.80021635       0.00000000
Si       2.71515204       2.70928764      -0.00083077       0.00000000
Si      -2.70998811       2.71474479      -0.00204231       0.00000000
Si       0.00161271       2.71145421       2.71543977       0.00000000
Si      -2.71311579      -0.00397476       2.71578593       0.00000000
Si      -2.71283886      -2.71679733       0.00391154       0.00000000
