10
Lattice="16.28999089631971 0.0 0.0 0.0 16.28999089631971 0.0 0.0 0.0 34.61538196595647" Properties=species:S:1:pos:R:3:initial_magmoms:R:1 pbc="T T T"
Si      -2.05865919       0.19026720      -1.11551592       0.00000000
Si       0.57170244       1.94346216       1.21905059       0.00000000
Si      -0.30380198      -1.91953215       1.38416605       0.00000000
Si       1.89950848      -0.57446685      -1.32556218       0.00000000
Si       3.46046515      -0.05787837       0.39741942       0.00000000
Si       1.03835392      -1.19785257       3.16128614       0.00000000
Si      -2.95250778      -1.97712544      -0.78888500       0.00000000
Si       0.29028128      -3.72929318      -0.08511927       0.00000000
Si       2.85635050       2.28560103       0.81844655       0.00000000
Si       0.75604985       1.10452716       3.50622861       0.00000000
