10
Lattice="16.28999089631971 0.0 0.0 0.0 16.28999089631971 0.0 0.0 0.0 34.61538196595647" Properties=species:S:1:pos:R:3:initial_magmoms:R:1 pbc="T T T"
Si       0.03995937       1.11412197      -2.03258175       0.00000000
Si      -1.98469934      -1.27996136       0.18484624       0.00000000
Si       2.06685891      -1.31949719       0.06964619       0.00000000
Si      -1.09230803      -2.67080156       2.00319327       0.00000000
Si       2.26069362       1.04647286      -2.74638594       0.00000000
Si      -0.24234470       3.41650170      -1.68763928       0.00000000
Si      -1.75413068      -0.84645188       3.32488549       0.00000000
Si       3.06616896      -1.08146771      -2.08810485       0.00000000
Si       1.42908912       1.52062263       3.29296400       0.00000000
Si      -3.55888349      -0.20037026       1.72228929       0.00000000
