10
Lattice="16.28999089631971 0.0 0.0 0.0 16.28999089631971 0.0 0.0 0.0 34.61538196595647" Properties=species:S:1:pos:R:3:initial_magmoms:R:1 pbc="T T T"
Si       0.94943007      -0.13651020      -2.14103180       0.00000000
Si      -2.25978138       0.18349056       0.61878491       0.00000000
Si       0.55855152      -2.16801981       0.79431961       0.00000000
Si       0.94700286       1.62401526       1.45505839       0.00000000
Si       0.11482821      -1.59278733       3.02777454       0.00000000
Si      -3.18094830      -0.98124444      -1.14199670       0.00000000
Si      -2.08313262      -0.81783945       2.76210133       0.00000000
Si       2.84126922      -2.07010062       0.56070027       0.00000000
Si       2.96922717      -1.22870583      -1.65073926       0.00000000
Si       1.57868019       0.29377386       3.24526310       0.00000000
