10
Lattice="16.28999089631971 0.0 0.0 0.0 16.28999089631971 0.0 0.0 0.0 34.61538196595647" Properties=species:S:1:pos:R:3:initial_magmoms:R:1 pbc="T T T"
Si       1.36181142       1.36441782      -1.34861950       0.00000000
Si      -1.35900954       1.35607734       1.36332758       0.00000000
Si       1.35764118      -1.35891180       1.36308527       0.00000000
Si      -1.38600207      -1.36081773      -1.38435990       0.00000000
Si       2.62741410      -0.01115865      -2.75613018       0.00000000
Si      -2.71230129      -2.71262709       0.00238846       0.00000000
Si      -2.71503801       2.71384884       0.00103846       0.00000000
Si       2.71494027       2.71427238       0.00661154       0.00000000
Si       2.71283886      -2.71808424       0.00360000       0.00000000
Si       2.71407690      -0.00061902       2.72018208       0.00000000
