10
Lattice="16.28999089631971 0.0 0.0 0.0 16.28999089631971 0.0 0.0 0.0 34.61538196595647" Properties=species:S:1:pos:R:3:initial_magmoms:R:1 pbc="T T T"
Si      -1.68277329      -0.20665494      -1.59365846       0.00000000
Si      -0.96526395      -1.51055541       1.52591612       0.00000000
Si      -0.21401802       2.11960593       1.04136973       0.00000000
Si       1.86163749      -1.04083326      -1.05455820       0.00000000
Si      -1.34514675      -2.48135796      -1.89083168       0.00000000
Si       2.49331482      -2.37107466       0.73564651       0.00000000
Si      -3.17526309       1.41525891      -0.72630035       0.00000000
Si       2.02499361       2.78925525       0.94731969       0.00000000
Si      -1.52765991       3.18895502      -0.60300029       0.00000000
Si      -0.00272043       2.67915114      -2.40279347       0.00000000
