10
Lattice="16.28999089631971 0.0 0.0 0.0 16.28999089631971 0.0 0.0 0.0 34.61538196595647" Properties=species:S:1:pos:R:3:initial_magmoms:R:1 pbc="T T T"
Si      -2.23901163      -0.66964932       0.09405005       0.00000000
Si       1.04485689      -1.48625073       1.63363925       0.00000000
Si       0.37476774       2.36577131       0.50850025       0.00000000
Si       0.21633120      -0.36136107      -2.41646655       0.00000000
Si      -2.02499361      -2.78925525      -0.94731969       0.00000000
Si       3.26163267      -1.36216980       0.78469653       0.00000000
Si       1.43671284       1.59982691      -2.98308605       0.00000000
Si      -1.41175656       2.91215420       2.05442407       0.00000000
Si      -3.55265352       0.39969977      -1.55031998       0.00000000
Si       0.97070481      -0.32757561       3.76830182       0.00000000
