10
Lattice="16.28999089631971 0.0 0.0 0.0 16.28999089631971 0.0 0.0 0.0 34.61538196595647" Properties=species:S:1:pos:R:3:initial_magmoms:R:1 pbc="T T T"
Si       2.23901163       0.66964932      -0.09405005       0.00000000
Si      -1.31364189       1.06934909      -1.64437002       0.00000000
Si       0.21401802      -2.11960593      -1.04136973       0.00000000
Si      -1.10928384      -0.01430262       2.09925101       0.00000000
Si       0.21129759       0.55954521      -3.44416320       0.00000000
Si      -2.96124507      -0.70434702      -1.76767008       0.00000000
Si       2.45534283       0.30828825      -2.51051660       0.00000000
Si       3.28386852      -0.81660141       1.53958920       0.00000000
Si      -0.04333140       1.78231075       3.28143620       0.00000000
Si      -0.75124593      -3.63016134       0.48454639       0.00000000
