10
Lattice="16.28999089631971 0.0 0.0 0.0 16.28999089631971 0.0 0.0 0.0 34.61538196595647" Properties=species:S:1:pos:R:3:initial_magmoms:R:1 pbc="T T T"
Si       1.37477404       1.37448504       1.34906604       0.00000000
Si      -1.29109653       1.43584947      -1.41635838       0.00000000
Si       1.42086660      -1.30331077      -1.42352376       0.00000000
Si      -1.58337171      -0.97634115       1.52636612       0.00000000
Si       1.76807492       0.03544704       3.28884389       0.00000000
Si      -2.62396062      -2.72833784       0.11703467       0.00000000
Si      -3.43942173       0.85644675       1.46360840       0.00000000
Si       2.65653152      -2.77623044       0.06611542       0.00000000
Si      -2.65139298       0.06481791      -2.80298212       0.00000000
Si       0.06677329      -2.65382738      -2.80478212       0.00000000
