10
Lattice="16.28999089631971 0.0 0.0 0.0 16.28999089631971 0.0 0.0 0.0 34.61538196595647" Properties=species:S:1:pos:R:3:initial_magmoms:R:1 pbc="T T T"
Si      -1.57393980      -1.14115685       1.24361856       0.00000000
Si      -0.80751159       0.95562027      -2.01935867       0.00000000
Si       1.15746966       1.60363647       1.35734054       0.00000000
Si       0.73801845      -2.04309506      -1.52757766       0.00000000
Si       1.13282289       2.52723060      -1.59234308       0.00000000
Si      -0.18233397      -2.36466359       2.74717313       0.00000000
Si      -0.86035635      -0.95418186      -3.42924396       0.00000000
Si       2.54277126      -2.68917668       0.07501854       0.00000000
Si       2.54407446       0.35119611       2.74854390       0.00000000
Si      -2.80780956      -2.58754337      -0.14469238       0.00000000
