10
Lattice="16.28999089631971 0.0 0.0 0.0 16.28999089631971 0.0 0.0 0.0 34.61538196595647" Properties=species:S:1:pos:R:3:initial_magmoms:R:1 pbc="T T T"
Si       1.35694071       1.35594702      -1.35771989       0.00000000
Si      -1.35765747       1.35736425       1.35692373       0.00000000
Si       1.35798327      -1.35826020       1.35754681       0.00000000
Si      -1.35798327      -1.35842310      -1.35851604       0.00000000
Si      -2.71396287      -0.00021177       2.71384746       0.00000000
Si      -0.00068418      -2.71456560       2.71402054       0.00000000
Si      -0.00114030       2.71239903      -2.71658208       0.00000000
Si      -2.71467963       2.71456560      -0.00031154       0.00000000
Si       2.71510317       2.71472850      -0.00038077       0.00000000
Si      -0.00079821       2.71531494       2.71457439       0.00000000
