10
Lattice="16.28999089631971 0.0 0.0 0.0 16.28999089631971 0.0 0.0 0.0 34.61538196595647" Properties=species:S:1:pos:R:3:initial_magmoms:R:1 pbc="T T T"
Si       1.35881406      -1.35619137      -1.36125066       0.00000000
Si      -1.35852084       1.35848826      -1.36180450       0.00000000
Si       1.35780408       1.37401263       1.36041989       0.00000000
Si      -1.35575154      -1.36994013       1.38423528       0.00000000
Si      -2.57626350       0.18652050       2.72641285       0.00000000
Si       2.71194291      -2.71542897      -0.00093462       0.00000000
Si       2.71446553       2.71520091      -0.00515769       0.00000000
Si      -2.71608057       2.71541268      -0.00765000       0.00000000
Si      -2.71515204      -2.71707426      -0.00512308       0.00000000
Si       0.00026064      -2.71508688      -2.71883208       0.00000000
