10
Lattice="16.28999089631971 0.0 0.0 0.0 16.28999089631971 0.0 0.0 0.0 34.61538196595647" Properties=species:S:1:pos:R:3:initial_magmoms:R:1 pbc="T T T"
Si      -0.83753406      -1.99259280       1.22019290       0.00000000
Si       0.86623704       1.97833905       1.28215446       0.00000000
Si      -1.40307399       1.27329156      -1.66330465       0.00000000
Si       1.31079114      -1.41319008      -1.65977388       0.00000000
Si      -2.65158846      -2.74134636      -0.24923089       0.00000000
Si       2.65347810       2.74256811      -0.24947320       0.00000000
Si       2.60188767      -2.84903955      -0.24341550       0.00000000
Si      -2.62358595       2.82975219      -0.32112708       0.00000000
Si      -0.04732245       2.64323169      -3.04753993       0.00000000
Si       2.66462046      -0.07219728      -3.04847455       0.00000000
