10
Lattice="16.28999089631971 0.0 0.0 0.0 16.28999089631971 0.0 0.0 0.0 34.61538196595647" Properties=species:S:1:pos:R:3:initial_magmoms:R:1 pbc="T T T"
Si      -0.99378774      -1.08621720       1.73274314       0.00000000
Si       2.25154583      -0.05455521      -0.32188862       0.00000000
Si      -0.95343741       2.09041425      -0.04887695       0.00000000
Si       2.25483641      -2.36639943      -0.73083497       0.00000000
Si       1.86153553      -1.02736143      -2.67061283       0.00000000
Si      -3.10515093       1.55755206       1.01956203       0.00000000
Si      -3.30144543      -0.79723260       1.43833916       0.00000000
Si      -1.24888914       2.42553213      -2.49410890       0.00000000
Si       3.34339937      -0.31982157       1.82187780       0.00000000
Si       0.20180052      -3.80451158      -0.37890018       0.00000000
