10
Lattice="16.28999089631971 0.0 0.0 0.0 16.28999089631971 0.0 0.0 0.0 34.61538196595647" Properties=species:S:1:pos:R:3:initial_magmoms:R:1 pbc="T T T"
Si       2.30765769      -0.28898460       0.29440399       0.00000000
Si      -0.62667630      -0.43388415       2.24501647       0.00000000
Si      -1.11871575      -0.72699012      -1.99180481       0.00000000
Si       0.19629450       2.35478466      -0.41877713       0.00000000
Si       0.52318593       1.45816677       2.99713991       0.00000000
Si      -2.87497323       0.87847083      -1.93337401       0.00000000
Si      -0.27795627       3.19142277       1.73308930       0.00000000
Si       2.65499307       0.77843394       2.37877038       0.00000000
Si       3.30144543       0.79723260      -1.43833916       0.00000000
Si       2.67880905      -2.58724296       0.35217709       0.00000000
