10
Lattice="16.28999089631971 0.0 0.0 0.0 16.28999089631971 0.0 0.0 0.0 34.61538196595647" Properties=species:S:1:pos:R:3:initial_magmoms:R:1 pbc="T T T"
Si      -0.47425077       0.83663811       2.15186642       0.00000000
Si      -0.19629450      -2.35478466       0.41877713       0.00000000
Si       2.15171352       0.53286219      -1.06843898       0.00000000
Si      -2.11587552       0.63355068      -1.74928931       0.00000000
Si       2.11136319      -2.64376926       0.71318111       0.00000000
Si       0.32689143      -0.89661789       3.41591703       0.00000000
Si       3.10515093      -1.55755206      -1.01956203       0.00000000
Si      -2.77035885       0.34311627       2.31847035       0.00000000
Si      -1.31501025      -3.08177478      -1.57302768       0.00000000
Si      -2.64075561       2.55419055      -0.56436950       0.00000000
