10
Lattice="16.28999089631971 0.0 0.0 0.0 16.28999089631971 0.0 0.0 0.0 34.61538196595647" Properties=species:S:1:pos:R:3:initial_magmoms:R:1 pbc="T T T"
Si      -0.80114220       1.73325600      -1.26405061       0.00000000
Si       0.30977064       0.68136183       2.16986643       0.00000000
Si       2.13180714      -0.67973283      -0.61836953       0.00000000
Si      -1.14986223      -1.89205092      -0.75212344       0.00000000
Si      -0.52318593      -1.45816677      -2.99713991       0.00000000
Si      -3.09725028       1.23973416      -1.09744668       0.00000000
Si       2.17191312      -2.70909216       0.56748489       0.00000000
Si      -0.32689143       0.89661789      -3.41591703       0.00000000
Si       3.51642034       1.02579759       0.27951937       0.00000000
Si      -0.53532198       3.63793167       0.09536543       0.00000000
