10
Lattice="16.28999089631971 0.0 0.0 0.0 16.28999089631971 0.0 0.0 0.0 34.61538196595647" Properties=species:S:1:pos:R:3:initial_magmoms:R:1 pbc="T T T"
Si      -0.30977064      -0.68136183      -2.16986643       0.00000000
Si      -0.97305057       2.11517505       0.13693853       0.00000000
Si      -0.07587882      -1.84067226       1.43494685       0.00000000
Si       2.18564559       0.86491755       0.21579241       0.00000000
Si       0.73596591      -0.51302097       3.23159002       0.00000000
Si       1.82203650      -1.36109466      -2.78823596       0.00000000
Si      -0.84509262       2.95656984      -2.07450100       0.00000000
Si       3.20664970       0.34443576      -1.89034707       0.00000000
Si      -1.11091284       1.05189417      -3.43391704       0.00000000
Si       2.86037739       0.14801094       2.44121656       0.00000000
