10
Lattice="16.28999089631971 0.0 0.0 0.0 16.28999089631971 0.0 0.0 0.0 34.61538196595647" Properties=species:S:1:pos:R:3:initial_magmoms:R:1 pbc="T T T"
Si      -1.35683482       1.35843939      -1.36260066       0.00000000
Si       1.35980775      -1.35778779      -1.36111219       0.00000000
Si      -1.35534266      -1.35581670       1.38143144       0.00000000
Si       1.36653552       1.35602847       1.38015067       0.00000000
Si      -2.71384207       2.71450044      -0.00578077       0.00000000
Si       2.71740006       2.71301805      -0.00020769       0.00000000
Si      -2.71636469      -2.71612944      -0.00155769       0.00000000
Si      -2.71316880      -0.00042354      -2.72000900       0.00000000
Si       0.00131949       2.71482624      -2.72028593       0.00000000
Si       0.00200367      -2.71608057      -2.71955900       0.00000000
