10
Lattice="16.28999089631971 0.0 0.0 0.0 16.28999089631971 0.0 0.0 0.0 34.61538196595647" Properties=species:S:1:pos:R:3:initial_magmoms:R:1 pbc="T T T"
Si       0.13405041       0.91763199      -2.12334333       0.00000000
Si       2.10768558      -0.28241973       0.98595048       0.00000000
Si      -1.04537817       1.49519394       1.54969690       0.00000000
Si      -0.35223867      -2.38974300      -0.09405005       0.00000000
Si      -2.88236889       0.07196922       1.74316238       0.00000000
Si       1.30896407      -1.14357429       3.02036684       0.00000000
Si       0.04616586       0.87726537       3.56625172       0.00000000
Si       1.00531684      -0.84618405      -3.43270550       0.00000000
Si      -3.51093483      -1.13948550      -0.17290393       0.00000000
Si       0.66876544      -2.91022479      -2.20018952       0.00000000
