10
Lattice="16.28999089631971 0.0 0.0 0.0 16.28999089631971 0.0 0.0 0.0 34.61538196595647" Properties=species:S:1:pos:R:3:initial_magmoms:R:1 pbc="T T T"
Si      -1.83699072      -1.42322472       0.19346548       0.00000000
Si       1.09154403      -0.61792857       2.01655482       0.00000000
Si       1.04537817      -1.49519394      -1.54969690       0.00000000
Si      -0.78765408       2.34121509      -0.19017701       0.00000000
Si       3.15306375      -1.77761367      -0.56374643       0.00000000
Si       2.35434224      -2.63876823       1.47066994       0.00000000
Si      -0.50160168      -1.66692312       3.41276703       0.00000000
Si      -3.72814569      -0.27080496       0.96196200       0.00000000
Si       2.23433870       1.30047957       2.87775139       0.00000000
Si       1.17942858      -0.57756195      -3.67304023       0.00000000
