10
Lattice="16.28999089631971 0.0 0.0 0.0 16.28999089631971 0.0 0.0 0.0 34.61538196595647" Properties=species:S:1:pos:R:3:initial_magmoms:R:1 pbc="T T T"
Si       0.69165711      -1.27518120      -1.79861625       0.00000000
Si       1.68366924       0.99224019       1.37074016       0.00000000
Si      -1.17362934      -1.62132741       1.42239326       0.00000000
Si      -1.14948756       1.72832013      -1.39275067       0.00000000
Si      -1.65947859      -1.47372372      -2.30694342       0.00000000
Si       0.30975435       2.35072845       2.84101549       0.00000000
Si      -2.43589257      -0.33207165       2.85984627       0.00000000
Si       2.26538514       0.03777651      -3.06259763       0.00000000
Si      -3.09291714      -2.57372226       0.02232693       0.00000000
Si       3.68646677       1.62398268       0.11398852       0.00000000
