10
Lattice="16.28999089631971 0.0 0.0 0.0 16.28999089631971 0.0 0.0 0.0 34.61538196595647" Properties=species:S:1:pos:R:3:initial_magmoms:R:1 pbc="T T T"
Si      -1.13663475      -0.31029192       2.00935482       0.00000000
Si       0.22136481       1.82938329      -1.45983532       0.00000000
Si      -0.71853561      -1.74087972      -1.43653915       0.00000000
Si       2.20138173      -0.40633776       0.91131967       0.00000000
Si       1.60930539      -2.06374752      -1.72325852       0.00000000
Si       3.09956346      -0.28051380      -1.24248521       0.00000000
Si      -0.80392779       3.32777007      -0.00605770       0.00000000
Si      -0.36315297      -2.68120368       2.09907794       0.00000000
Si       2.52618804       1.95098814      -1.71765083       0.00000000
Si      -3.32377413       0.26567361       1.45658147       0.00000000
