10
Lattice="16.28999089631971 0.0 0.0 0.0 16.28999089631971 0.0 0.0 0.0 34.61538196595647" Properties=species:S:1:pos:R:3:initial_magmoms:R:1 pbc="T T T"
Si       1.35578179      -1.35726651       1.35716604       0.00000000
Si       1.35625210       1.35760860      -1.35733912       0.00000000
Si      -1.35842310      -1.35720135      -1.35688912       0.00000000
Si      -1.35738054       1.35769005       1.35882758       0.00000000
Si      -0.00087966      -2.69845479       2.72274362       0.00000000
Si       2.70634797      -0.00817758       2.71917823       0.00000000
Si       2.71278903      -2.71332756       0.00034615       0.00000000
Si       2.71413621      -0.00004887      -2.71436669       0.00000000
Si      -0.00130320      -2.71456560      -2.71443592       0.00000000
Si       2.71437079       2.71513575      -0.00027692       0.00000000
