10
Lattice="16.28999089631971 0.0 0.0 0.0 16.28999089631971 0.0 0.0 0.0 34.61538196595647" Properties=species:S:1:pos:R:3:initial_magmoms:R:1 pbc="T T T"
Si       1.54637942       1.60668270      -0.61418107       0.00000000
Si      -1.86365745       0.23141574      -1.45325839       0.00000000
Si      -0.63757431       0.61652763       2.20763183       0.00000000
Si       1.39256761      -2.00238309      -0.16805777       0.00000000
Si       2.64879377       1.77688062       1.51570458       0.00000000
Si      -3.35691288      -1.29974652      -0.47194638       0.00000000
Si       1.37957145       0.92422944       3.40137856       0.00000000
Si       2.50505081       0.99201213      -2.77532442       0.00000000
Si      -0.01876608      -3.89601414      -0.16708854       0.00000000
Si       0.66010568       3.64139234      -1.33442372       0.00000000
