10
Lattice="16.28999089631971 0.0 0.0 0.0 16.28999089631971 0.0 0.0 0.0 34.61538196595647" Properties=species:S:1:pos:R:3:initial_magmoms:R:1 pbc="T T T"
Si      -1.47962070      -1.20855510       1.33352168       0.00000000
Si      -0.97720452       1.56543642      -1.48534687       0.00000000
Si       1.26944712       1.41009498       1.44371289       0.00000000
Si       1.63812240      -0.90881910      -1.51646612       0.00000000
Si       0.16925310      -0.35562699      -3.24810157       0.00000000
Si       3.34470420       0.71987139      -1.26287369       0.00000000
Si       0.87812874       3.19030269      -1.54377767       0.00000000
Si       2.68288155       2.54422107       0.05881853       0.00000000
Si      -0.02948490      -2.55508650       2.71248850       0.00000000
Si      -2.66769927       2.64585438      -0.16089239       0.00000000
