10
Lattice="16.28999089631971 0.0 0.0 0.0 16.28999089631971 0.0 0.0 0.0 34.61538196595647" Properties=species:S:1:pos:R:3:initial_magmoms:R:1 pbc="T T T"
Si       2.28464806       0.34213887      -0.40060404       0.00000000
Si      -0.57170244      -1.94346216      -1.21905059       0.00000000
Si      -1.49131596       1.77271038      -0.61791953       0.00000000
Si       0.18434741      -0.83893500       2.28717803       0.00000000
Si       2.70867676       1.44304965       1.64821233       0.00000000
Si       2.88876271      -2.00134053      -0.82163117       0.00000000
Si       0.89776634       2.95670016       2.02091636       0.00000000
Si       0.46665148      -3.14131473       1.94223555       0.00000000
Si      -0.50484502       3.73578570       0.27107321       0.00000000
Si      -3.61572744       1.11167847       0.17245393       0.00000000
