10
Lattice="16.28999089631971 0.0 0.0 0.0 16.28999089631971 0.0 0.0 0.0 34.61538196595647" Properties=species:S:1:pos:R:3:initial_magmoms:R:1 pbc="T T T"
Si      -0.28812123      -1.69284051       1.55250075       0.00000000
Si       2.06842275       1.08921456      -0.11890390       0.00000000
Si      -0.42402870      -1.10091078      -2.04881637       0.00000000
Si      -1.81091043       1.51365051       0.37270403       0.00000000
Si       0.45939429       0.75266316      -3.21123616       0.00000000
Si       1.33454196       2.46707163      -1.83728166       0.00000000
Si      -2.52432935      -2.28198465       0.63896569       0.00000000
Si      -2.70867676      -1.44304965      -1.64821233       0.00000000
Si       0.55379484      -0.47866536       3.48511322       0.00000000
Si       1.34728074      -3.28070826       0.92835045       0.00000000
