10
Lattice="16.28999089631971 0.0 0.0 0.0 16.28999089631971 0.0 0.0 0.0 34.61538196595647" Properties=species:S:1:pos:R:3:initial_magmoms:R:1 pbc="T T T"
Si       1.35299853      -1.35563014       1.36038527       0.00000000
Si       1.36199061       1.35578412      -1.35168988       0.00000000
Si      -1.36034532       1.35878148       1.36000450       0.00000000
Si      -1.37357280      -1.36940396      -1.38337336       0.00000000
Si      -0.12799053       2.49295644      -2.76180710       0.00000000
Si       2.71257822      -2.71333475      -0.00138462       0.00000000
Si       2.71192662       0.00197598       2.71741285       0.00000000
Si      -2.71628908      -2.71356281       0.00242308       0.00000000
Si       2.71246419       2.71863810       0.00591923       0.00000000
Si      -0.00312768      -2.71349765       2.71765516       0.00000000
