10
Lattice="16.28999089631971 0.0 0.0 0.0 16.28999089631971 0.0 0.0 0.0 34.61538196595647" Properties=species:S:1:pos:R:3:initial_magmoms:R:1 pbc="T T T"
Si      -1.23441059       1.24647822      -1.53084189       0.00000000
Si      -1.37277948      -1.33323876       1.35244104       0.00000000
Si       1.34089506       1.37512035       1.35185258       0.00000000
Si       1.30184793      -1.41926625      -1.44401608       0.00000000
Si      -2.06237916      -0.70680681      -2.75444929       0.00000000
Si       2.21206797       0.29261727      -2.91236475       0.00000000
Si       0.57459717       2.22089715      -2.88169551       0.00000000
Si      -0.36245250      -2.52423324      -2.72343389       0.00000000
Si       2.69884575      -2.70084942      -0.01414039       0.00000000
Si      -0.01664838      -2.69739594       2.71244554       0.00000000
