10
Lattice="16.28999089631971 0.0 0.0 0.0 16.28999089631971 0.0 0.0 0.0 34.61538196595647" Properties=species:S:1:pos:R:3:initial_magmoms:R:1 pbc="T T T"
Si      -1.35700724       1.35606105       1.35681989       0.00000000
Si       1.35815431       1.35638685      -1.35768527       0.00000000
Si      -1.35633397      -1.35886293      -1.35740835       0.00000000
Si       1.35683482      -1.35843939       1.36260066       0.00000000
Si      -0.00644107       2.70514998       2.71883208       0.00000000
Si      -2.71278903       2.71332756      -0.00034615       0.00000000
Si       2.71358005       2.71366965       0.00031154       0.00000000
Si      -2.71265871      -2.71533123       0.00072692       0.00000000
Si       0.00134718       2.71327869      -2.71471285       0.00000000
Si      -2.71409223      -0.00123804      -2.71478208       0.00000000
