10
Lattice="16.28999089631971 0.0 0.0 0.0 16.28999089631971 0.0 0.0 0.0 34.61538196595647" Properties=species:S:1:pos:R:3:initial_magmoms:R:1 pbc="T T T"
Si       0.08389350      -1.55725884      -1.76964316       0.00000000
Si       1.66430043       1.10496699       1.27941781       0.00000000
Si      -1.09359168      -1.58632020       1.39578094       0.00000000
Si      -1.69992666       1.81742643      -0.03101540       0.00000000
Si      -2.39767933      -0.16685847       2.72227081       0.00000000
Si       0.36245250       2.52423324       2.72343389       0.00000000
Si       2.57452047       2.81685051      -0.18893086       0.00000000
Si      -2.17780684       2.28579651      -2.27582417       0.00000000
Si       0.35157078      -2.89937565       2.70650696       0.00000000
Si      -1.92407543      -3.50292015       0.01714051       0.00000000
