10
Lattice="16.28999089631971 0.0 0.0 0.0 16.28999089631971 0.0 0.0 0.0 34.61538196595647" Properties=species:S:1:pos:R:3:initial_magmoms:R:1 pbc="T T T"
Si      -0.47788018       0.46837008      -2.24480878       0.00000000
Si      -2.00279753      -0.63174249       1.25675165       0.00000000
Si       0.82796857       1.95328503       1.22360740       0.00000000
Si       1.69992666      -1.81742643       0.03101540       0.00000000
Si      -1.70910512       2.37301317      -1.50192765       0.00000000
Si      -0.69775267      -1.98428490       2.75328621       0.00000000
Si       2.06237916       0.70680681       2.75444929       0.00000000
Si       3.36422709      -0.71245944       1.31043321       0.00000000
Si       0.60633498      -3.40374663       1.42679634       0.00000000
Si      -1.42108163      -1.58620617      -3.17658615       0.00000000
