10
Lattice="16.28999089631971 0.0 0.0 0.0 16.28999089631971 0.0 0.0 0.0 34.61538196595647" Properties=species:S:1:pos:R:3:initial_magmoms:R:1 pbc="T T T"
Si       1.35426589      -1.35650088       1.35733912       0.00000000
Si       1.34271628       1.34415885      -1.38579644       0.00000000
Si      -1.36083311       1.35589493       1.35855066       0.00000000
Si      -1.33564383      -1.38504096      -1.36620066       0.00000000
Si      -2.76960366      -0.10612935      -2.65078512       0.00000000
Si       2.71145095      -2.71612944      -0.00273462       0.00000000
Si       2.71316140       0.00006516       2.71523208       0.00000000
Si      -2.71496700       2.71390327      -0.00103846       0.00000000
Si       2.71628908       2.71356281      -0.00242308       0.00000000
Si      -0.00156384      -2.71485882       2.71502439       0.00000000
