10
Lattice="16.28999089631971 0.0 0.0 0.0 16.28999089631971 0.0 0.0 0.0 34.61538196595647" Properties=species:S:1:pos:R:3:initial_magmoms:R:1 pbc="T T T"
Si       1.35707112      -1.35628911      -1.36194296       0.00000000
Si      -1.35759289       1.35894505      -1.36111219       0.00000000
Si      -1.34995288      -1.35415512       1.37658528       0.00000000
Si       1.35409331       1.35051660       1.38125836       0.00000000
Si       2.71468624      -2.71264338      -0.00180000       0.00000000
Si      -2.71468021      -2.71373481      -0.00283846       0.00000000
Si      -0.00104756      -2.71381626      -2.71900516       0.00000000
Si       2.71413238       0.00126468      -2.71883208       0.00000000
Si      -2.71617889       0.00144598      -2.71862439       0.00000000
Si      -0.00107419       2.71646243      -2.71879747       0.00000000
