10
Lattice="16.28999089631971 0.0 0.0 0.0 16.28999089631971 0.0 0.0 0.0 34.61538196595647" Properties=species:S:1:pos:R:3:initial_magmoms:R:1 pbc="T T T"
Si      -1.41133369      -1.89363105       0.00096923       0.00000000
Si       1.28393545      -0.36649242      -1.98924327       0.00000000
Si      -1.39256761       2.00238309       0.16805777       0.00000000
Si       2.04585133      -0.25607880       1.31438140       0.00000000
Si       1.64322769      -2.65939137      -1.53851613       0.00000000
Si       0.15381181       3.60906579      -0.44612329       0.00000000
Si       2.87869387       2.10730698       1.34266219       0.00000000
Si       2.86649266      -2.51353071       0.47125407       0.00000000
Si      -1.54538410      -2.81126304       2.12431256       0.00000000
Si      -3.53147719      -1.33995024      -0.80709270       0.00000000
