10
Lattice="16.290000149 0.0 0.0 0.0 16.290000149 0.0 0.0 0.0 29.1751946751" Properties=species:S:1:pos:R:3:initial_magmoms:R:1 pbc="T T T"
Si      -1.35609364       1.37696113       1.25785934       0.00000000
Si      -1.42343650      -1.30904812      -1.30964531       0.00000000
Si       1.33248943       1.44875116      -1.25797604       0.00000000
Si       1.29691207      -1.30145698       1.46211488       0.00000000
Si      -2.76846924       0.05093883       2.49500430       0.00000000
Si       2.67859730       0.08345367      -2.60511148       0.00000000
Si      -0.04341285      -2.65569356      -2.62988122       0.00000000
Si       2.68037291      -2.64611504       0.12921694       0.00000000
Si      -0.05419683       2.79259473      -2.60219396       0.00000000
Si      -2.78423796       0.08602749      -2.61468095       0.00000000
