10
Lattice="16.290000149 0.0 0.0 0.0 16.290000149 0.0 0.0 0.0 29.1751946751" Properties=species:S:1:pos:R:3:initial_magmoms:R:1 pbc="T T T"
Si      -0.70121935       2.04412298       0.77016679       0.00000000
Si       2.05692203      -0.61102324       0.89757486       0.00000000
Si      -1.23463540      -1.80090350       0.83423552       0.00000000
Si      -0.63983863      -0.67780084      -2.15108710       0.00000000
Si      -0.65013391      -2.81808369      -1.16665768       0.00000000
H        0.66635875       2.30639198      -2.13069364       0.00000000
Si      -1.32238963       1.52909833       2.95285063       0.00000000
Si       1.06556149       3.52789764       0.43716112       0.00000000
Si      -3.54716382       0.79510350      -0.76287299       0.00000000
Si      -3.46445949      -1.21874776       0.59073934       0.00000000
