10
Lattice="16.290000149 0.0 0.0 0.0 16.290000149 0.0 0.0 0.0 29.1751946751" Properties=species:S:1:pos:R:3:initial_magmoms:R:1 pbc="T T T"
Si       1.32103756       1.38450340      -1.37951699       0.00000000
Si       1.34819299      -1.36339156       1.37618518       0.00000000
Si      -1.36427122       1.34631964       1.39019511       0.00000000
Si      -1.38782656      -1.38021913      -1.34004295       0.00000000
Si       2.51714711      -0.09259236      -2.80647576       0.00000000
Si      -2.64634310      -2.74809045       0.08650445       0.00000000
Si      -2.83936332       0.03372030      -2.56128742       0.00000000
Si       2.71971326       0.04178385       2.68913896       0.00000000
Si      -0.07804539       2.80675074      -2.61219814       0.00000000
Si       2.63239886       2.82799290      -0.00768183       0.00000000
