10
Lattice="16.290000149 0.0 0.0 0.0 16.290000149 0.0 0.0 0.0 29.1751946751" Properties=species:S:1:pos:R:3:initial_magmoms:R:1 pbc="T T T"
Si       0.43891776      -0.24765687       2.28150110       0.00000000
Si      -1.72506215       1.62228853       0.10357194       0.00000000
Si      -0.04787631      -2.29136771      -0.66464011       0.00000000
Si       1.87137893       0.89704144      -1.27621054       0.00000000
H       -0.93727774       0.16112439      -2.54066348       0.00000000
Si       2.15692634      -2.67304241       0.13335981       0.00000000
Si      -0.32677740       3.35402958      -0.81037021       0.00000000
Si       2.07233237      -1.98219980       2.36280274       0.00000000
Si       3.46589301       1.71150887       0.27900239       0.00000000
Si      -3.78244029       0.61572943      -0.62154835       0.00000000
