10
Lattice="16.290000149 0.0 0.0 0.0 16.290000149 0.0 0.0 0.0 29.1751946751" Properties=species:S:1:pos:R:3:initial_magmoms:R:1 pbc="T T T"
H       -1.23711148       0.91728991       0.41420024       0.00000000
Si       0.02412549      -0.68486419      -2.21734397       0.00000000
Si       1.33819093       1.92008603       0.04417124       0.00000000
Si      -0.07094295      -1.37143882       1.91202556       0.00000000
Si      -2.41541606       1.93919420       0.24346700       0.00000000
Si       3.22191768      -0.84515779       0.75875929       0.00000000
H       -1.18977274      -1.31815423       2.93193201       0.00000000
Si       1.99357022      -0.61582717       2.72041185       0.00000000
Si       0.13308930      -3.46028925       0.91610111       0.00000000
Si       2.24042888      -2.84306115      -0.11617563       0.00000000
