10
Lattice="16.290000149 0.0 0.0 0.0 16.290000149 0.0 0.0 0.0 29.1751946751" Properties=species:S:1:pos:R:3:initial_magmoms:R:1 pbc="T T T"
Si       1.67508443      -1.68109544      -0.24889359       0.00000000
Si      -1.86513986      -0.83227240      -1.25567120       0.00000000
Si      -0.62941303       0.32345424       2.33398640       0.00000000
Si       0.69190147       1.85991077      -1.42010260       0.00000000
H        2.20198448       0.78201775       1.13039292       0.00000000
H       -1.04739814       2.50222547       0.08571672       0.00000000
H       -2.59046840      -0.30154419       1.24370937       0.00000000
H        0.57692665      -1.63620020       2.54935769       0.00000000
H       -0.48584925       2.36723024      -2.23178569       0.00000000
H       -3.24516351       0.11300373       1.20831986       0.00000000
