10
Lattice="16.290000149 0.0 0.0 0.0 16.290000149 0.0 0.0 0.0 29.1751946751" Properties=species:S:1:pos:R:3:initial_magmoms:R:1 pbc="T T T"
Si       1.41874498      -1.33069753      -1.30115533       0.00000000
Si       1.37368684       1.32556618       1.36394035       0.00000000
Si      -1.35071794      -1.37575567       1.34614348       0.00000000
Si      -1.35234694       1.31831713      -1.40720716       0.00000000
Si       0.10671579      -2.69083109      -2.64564458       0.00000000
Si       0.00501732       2.70524774       2.68534327       0.00000000
Si       2.75203263       2.64362267       0.00014588       0.00000000
Si      -2.72012051      -0.01106091       2.68058771       0.00000000
Si      -2.71440272       2.69252525      -0.05823369       0.00000000
Si       0.01366731       2.66843234      -2.75822874       0.00000000
