10
Lattice="16.290000149 0.0 0.0 0.0 16.290000149 0.0 0.0 0.0 29.1751946751" Properties=species:S:1:pos:R:3:initial_magmoms:R:1 pbc="T T T"
Si       1.36560700       1.35335692       1.34798152       0.00000000
Si       1.36940257      -1.36469476      -1.33444423       0.00000000
Si      -1.34830702      -1.34851879       1.37578548       0.00000000
Si      -1.34962651       1.35954712      -1.36434880       0.00000000
Si      -0.00946449       2.71718831       2.67915813       0.00000000
Si       2.72012051       0.01106091      -2.68058771       0.00000000
Si       2.71643897      -0.02182860       2.69135336       0.00000000
Si      -2.69710274      -2.71135649       0.02818324       0.00000000
Si       0.02189376      -2.72170064      -2.69561294       0.00000000
Si      -2.71047683       0.00449604      -2.71621062       0.00000000
