10
Lattice="16.290000149 0.0 0.0 0.0 16.290000149 0.0 0.0 0.0 29.1751946751" Properties=species:S:1:pos:R:3:initial_magmoms:R:1 pbc="T T T"
Si      -1.45273244      -1.37414296       1.23764093       0.00000000
Si       1.35562123      -1.32227560      -1.39909646       0.00000000
Si      -1.33825121       1.36788760      -1.37692331       0.00000000
Si       1.39652542       1.43083216       1.27329302       0.00000000
Si      -0.03399723      -2.59426397       2.61678156       0.00000000
Si      -0.12761586       2.68162724       2.52493805       0.00000000
Si      -2.71552673       0.00563634      -2.73044812       0.00000000
Si      -0.00131949      -2.70531290      -2.74462726       0.00000000
Si       0.01001835       2.71879510      -2.73523285       0.00000000
Si      -2.79220377      -0.07219728       2.66095281       0.00000000
