10
Lattice="16.290000149 0.0 0.0 0.0 16.290000149 0.0 0.0 0.0 29.1751946751" Properties=species:S:1:pos:R:3:initial_magmoms:R:1 pbc="T T T"
Si       1.35927019       1.36440154       1.33120578       0.00000000
Si       1.36389655      -1.34713414      -1.35104492       0.00000000
Si      -1.32981787       1.36607941      -1.37575630       0.00000000
Si      -1.35523027      -1.37749870       1.35591717       0.00000000
Si       2.69589728      -0.01110978       2.68408873       0.00000000
Si      -0.00459378      -2.69578325      -2.68881512       0.00000000
Si      -2.70848945       0.00314397      -2.68114204       0.00000000
Si      -2.71459820       2.68097564      -0.01823450       0.00000000
Si       0.01247814       2.71249679       2.69730510       0.00000000
Si       2.69594615       2.72114678      -0.05117329       0.00000000
