10
Lattice="16.290000149 0.0 0.0 0.0 16.290000149 0.0 0.0 0.0 29.1751946751" Properties=species:S:1:pos:R:3:initial_magmoms:R:1 pbc="T T T"
Si       1.27084742      -1.36037791      -1.42325352       0.00000000
Si       1.36095881       1.40781439       1.31448840       0.00000000
Si      -1.39264091       1.35412255      -1.35183265       0.00000000
Si      -1.29623669      -1.35759232       1.44475564       0.00000000
Si       2.62142690      -2.69312798      -0.04916020       0.00000000
Si      -0.07627858       2.65202831       2.68128792       0.00000000
Si      -2.72224701      -2.62918973       0.03994084       0.00000000
Si       2.61131081       0.00897579      -2.78503491       0.00000000
Si      -0.03736177       2.70228296      -2.74424799       0.00000000
Si      -0.10928212      -2.72269433      -2.75597641       0.00000000
