10
Lattice="16.290000149 0.0 0.0 0.0 16.290000149 0.0 0.0 0.0 29.1751946751" Properties=species:S:1:pos:R:3:initial_magmoms:R:1 pbc="T T T"
Si      -0.51486174      -0.91036666      -2.09454558       0.00000000
Si       2.05737815       1.00655911       0.72512029       0.00000000
Si      -1.41435809       1.94831660       0.00353020       0.00000000
Si      -0.67836122      -1.75948292       1.50695716       0.00000000
H        1.43547481       1.57121938      -2.36383262       0.00000000
Si      -1.94062772      -0.33063813       2.83258668       0.00000000
H        2.84516256      -0.45460503      -1.91911513       0.00000000
Si       0.24557175       1.20244636      -3.26286625       0.00000000
Si       1.05313222       2.25253235       2.56511229       0.00000000
Si      -3.08346897       1.16843284       1.45029893       0.00000000
