10
Lattice="16.290000149 0.0 0.0 0.0 16.290000149 0.0 0.0 0.0 29.1751946751" Properties=species:S:1:pos:R:3:initial_magmoms:R:1 pbc="T T T"
Si      -1.35610993       1.35363385      -1.30748635       0.00000000
Si       1.38259747       1.35663121       1.29450339       0.00000000
Si       1.35878149      -1.34856766      -1.33593216       0.00000000
Si      -1.34516305      -1.31351158       1.38897267       0.00000000
H       -0.43969968      -2.21245895       2.19811752       0.00000000
Si       2.60778467      -0.17747955       2.53132742       0.00000000
Si      -2.66802509      -0.07397289      -2.63209854       0.00000000
Si      -2.55145385       2.75680560       0.17082076       0.00000000
Si       2.59652828      -2.74224234       0.03676075       0.00000000
Si       0.01176138       2.60279993      -2.74760313       0.00000000
