10
Lattice="16.290000149 0.0 0.0 0.0 16.290000149 0.0 0.0 0.0 29.1751946751" Properties=species:S:1:pos:R:3:initial_magmoms:R:1 pbc="T T T"
Si      -1.27858419       1.37230056      -1.38831914       0.00000000
Si       1.30315114       1.32620475       1.42386620       0.00000000
Si      -1.41092090      -1.39207825       1.25505852       0.00000000
Si       1.32973642      -1.31414689      -1.41778609       0.00000000
Si       2.64867257       2.65701305       0.07777232       0.00000000
Si      -0.10391391      -2.67195098      -2.68997891       0.00000000
Si      -0.04377123      -2.73991287       2.62518402       0.00000000
Si       2.66072717      -2.71195922      -0.05395077       0.00000000
Si      -2.71030397       2.67913487      -0.03668781       0.00000000
Si      -2.69156398      -0.04624731       2.71011301       0.00000000
