10
Lattice="16.290000149 0.0 0.0 0.0 16.290000149 0.0 0.0 0.0 29.1751946751" Properties=species:S:1:pos:R:3:initial_magmoms:R:1 pbc="T T T"
Si      -1.37007046       1.34682463       1.33782855       0.00000000
Si      -1.38605095      -1.35044101      -1.32426209       0.00000000
Si       1.36384768      -1.36466218       1.33520278       0.00000000
Si       1.37003788       1.35863488      -1.33707000       0.00000000
Si       0.00822645       2.68131773       2.68344688       0.00000000
Si      -0.05737338      -2.77097138      -2.61074230       0.00000000
Si      -0.00022806      -2.71235344       2.68411791       0.00000000
Si       2.69597873      -0.00110772      -2.70296509       0.00000000
Si      -2.71977842      -0.01821222       2.69284129       0.00000000
Si      -2.71679735       2.70500339      -0.03080901       0.00000000
