10
Lattice="16.290000149 0.0 0.0 0.0 16.290000149 0.0 0.0 0.0 29.1751946751" Properties=species:S:1:pos:R:3:initial_magmoms:R:1 pbc="T T T"
Si      -1.36187822      -1.35146728       1.35025718       0.00000000
Si      -1.38937411       1.34913781      -1.32916352       0.00000000
Si       1.31851261      -1.36339156      -1.38938112       0.00000000
Si       1.36935370       1.36340785       1.35034471       0.00000000
Si      -0.01339038       2.69767289      -2.67834122       0.00000000
Si       0.00807984      -2.69873174       2.70229406       0.00000000
Si       2.68600925      -2.72108162      -0.06228904       0.00000000
Si       2.68697036      -0.01861947      -2.73088575       0.00000000
Si      -2.70612740       0.01221750       2.71647320       0.00000000
Si      -2.70377197      -0.01729998      -2.72277504       0.00000000
