10
Lattice="16.290000149 0.0 0.0 0.0 16.290000149 0.0 0.0 0.0 29.1751946751" Properties=species:S:1:pos:R:3:initial_magmoms:R:1 pbc="T T T"
Si      -1.67508443       1.68109544       0.24889359       0.00000000
Si       0.34546203      -0.24369840       2.36228634       0.00000000
Si       1.63965368       1.05888259      -1.42911774       0.00000000
Si      -1.07158879      -1.68565664      -1.38491732       0.00000000
H        1.88831890      -1.63690066       0.26502747       0.00000000
H        0.52690005       2.46311318       1.37928650       0.00000000
H       -1.09815778       0.04489524       2.79825127       0.00000000
Si      -2.41479704      -0.27197784      -2.75518868       0.00000000
Si       0.34915986       2.47032965      -2.79104500       0.00000000
Si      -3.54022428       0.84882304      -1.00677762       0.00000000
