10
Lattice="16.290000149 0.0 0.0 0.0 16.290000149 0.0 0.0 0.0 29.1751946751" Properties=species:S:1:pos:R:3:initial_magmoms:R:1 pbc="T T T"
Si       1.19932210      -1.26994723      -1.62015691       0.00000000
Si      -1.28709718       1.34400646      -1.50488572       0.00000000
Si      -1.43017226      -1.42640780       1.34418874       0.00000000
Si       1.32020042       1.69274279       1.13771589       0.00000000
H        2.83228547       0.22388976       0.51074096       0.00000000
H        0.18152615       2.65784384       1.42579176       0.00000000
H       -0.97928134       0.84123190       3.35724800       0.00000000
Si      -2.62189980      -2.56821789      -0.34899368       0.00000000
Si       3.44206905      -1.08784947       0.93766158       0.00000000
Si       2.56340273      -2.73131174      -0.46584033       0.00000000
