10
Lattice="16.290000149 0.0 0.0 0.0 16.290000149 0.0 0.0 0.0 29.1751946751" Properties=species:S:1:pos:R:3:initial_magmoms:R:1 pbc="T T T"
Si      -0.74771101       1.31810536      -1.78995654       0.00000000
Si      -1.51123960      -1.84954055      -0.06511903       0.00000000
Si       1.99133849      -0.89683618      -0.97459738       0.00000000
Si      -0.64228213       1.05909436       2.04976165       0.00000000
H        2.44222940       1.37080351       1.03846188       0.00000000
H        1.23077467      -0.78704810       2.76907608       0.00000000
Si      -2.50260014       2.28938033      -0.52553278       0.00000000
Si       0.79961095      -2.03864628      -2.66777980       0.00000000
Si      -0.63861688      -0.41456421      -3.59406306       0.00000000
Si       2.56445327      -2.63922437       0.54233769       0.00000000
