10
Lattice="16.290000149 0.0 0.0 0.0 16.290000149 0.0 0.0 0.0 29.1751946751" Properties=species:S:1:pos:R:3:initial_magmoms:R:1 pbc="T T T"
Si      -1.19172754      -1.14181009      -1.69318242       0.00000000
Si       0.57311479      -1.74238819       1.51693507       0.00000000
Si      -1.99133849       0.89683618       0.97459738       0.00000000
Si       1.43017226       1.42640780      -1.34418874       0.00000000
H        0.45089091       2.26763970       2.01305926       0.00000000
Si      -2.47306637      -2.57801633      -0.40509758       0.00000000
Si      -2.73904949       2.21494155      -0.81535917       0.00000000
Si      -3.50257809      -0.95270437       0.90947834       0.00000000
Si      -2.62995536       0.48227197      -2.61946568       0.00000000
H       -0.76056382       0.10978809       3.74367346       0.00000000
