10
Lattice="16.290000149 0.0 0.0 0.0 16.290000149 0.0 0.0 0.0 29.1751946751" Properties=species:S:1:pos:R:3:initial_magmoms:R:1 pbc="T T T"
Si       1.31141982       1.33579826      -1.36770395       0.00000000
Si      -1.27055485      -1.46461762      -1.30141791       0.00000000
Si      -1.29445228       1.42068186       1.33806195       0.00000000
Si       1.22626234      -1.49623651       1.35723006       0.00000000
H       -1.91787059      -2.29372976      -0.22686631       0.00000000
Si      -2.57579111      -0.01552437       2.62614680       0.00000000
Si       2.52676962       2.71895252       0.06689872       0.00000000
Si      -0.15586272       2.62977292      -2.63834203       0.00000000
Si       2.68021490      -0.05615163      -2.68064606       0.00000000
Si       2.56573367      -2.79818220      -0.06608182       0.00000000
