10
Lattice="16.290000149 0.0 0.0 0.0 16.290000149 0.0 0.0 0.0 29.1751946751" Properties=species:S:1:pos:R:3:initial_magmoms:R:1 pbc="T T T"
Si      -1.33083926       1.40802616      -1.31017047       0.00000000
Si       1.33558942       1.37658646       1.34410122       0.00000000
Si       1.35006146      -1.32722776      -1.40531078       0.00000000
Si      -1.38475916      -1.33133284       1.36717880       0.00000000
Si      -2.72114190       0.06392196      -2.58586169       0.00000000
Si       2.64488189      -2.67968873       0.02567417       0.00000000
Si       2.67951443       0.01865205       2.70597013       0.00000000
Si       2.66614034       2.73450459      -0.03842373       0.00000000
Si      -0.05270955       2.73694809       2.66705042       0.00000000
Si      -2.75324949      -2.67998195       0.02940860       0.00000000
