10
Lattice="16.290000149 0.0 0.0 0.0 16.290000149 0.0 0.0 0.0 29.1751946751" Properties=species:S:1:pos:R:3:initial_magmoms:R:1 pbc="T T T"
Si      -1.39036780      -1.28024740       1.33330640       0.00000000
Si       1.24985026       1.29965857       1.49309894       0.00000000
Si       1.35974260      -1.37976301      -1.34068772       0.00000000
Si      -1.43185843       1.36195478      -1.29456174       0.00000000
Si       2.40709187       2.74416456      -0.01502523       0.00000000
Si       2.70242957       0.00123804      -2.65082901       0.00000000
Si      -0.05198139      -2.70671384      -2.69488356       0.00000000
Si      -0.12321756       2.71021619      -2.71273878       0.00000000
Si      -2.77687488       0.00771554      -2.67521948       0.00000000
Si      -2.78689323      -2.71107956       0.06001338       0.00000000
