10
Lattice="16.290000149 0.0 0.0 0.0 16.290000149 0.0 0.0 0.0 29.1751946751" Properties=species:S:1:pos:R:3:initial_magmoms:R:1 pbc="T T T"
Si      -1.61833006       0.16928568       1.67442277       0.00000000
Si       0.82751572       1.92523204      -1.03151818       0.00000000
Si       1.75787021      -1.16396938       1.03253931       0.00000000
Si      -1.54903240      -0.78613912      -1.59620408       0.00000000
H       -0.22136481       3.03686654      -1.01097885       0.00000000
Si      -2.06185790       2.45757458       1.37234281       0.00000000
Si       0.60149197      -2.80337871       2.21145058       0.00000000
Si       1.11231379       1.18469026      -3.23771723       0.00000000
Si      -2.47681307      -2.62045829      -0.42934216       0.00000000
Si      -0.41298408      -0.66039661      -3.66067003       0.00000000
