10
Lattice="16.290000149 0.0 0.0 0.0 16.290000149 0.0 0.0 0.0 29.1751946751" Properties=species:S:1:pos:R:3:initial_magmoms:R:1 pbc="T T T"
Si       0.16993728      -0.78763780      -1.27816528       0.00000000
H       -1.40968774       2.02582442      -0.44471749       0.00000000
Si       0.93727774      -0.16112439       2.54066348       0.00000000
H       -1.27321012      -2.66706398       0.42589949       0.00000000
Si      -2.04120218      -0.72746254      -2.08544292       0.00000000
Si       1.03764043      -2.85780360      -0.47756876       0.00000000
Si      -0.78778441       1.46116414       2.64423542       0.00000000
Si       2.80865667       0.73591705       1.26445294       0.00000000
Si       0.88940143      -2.45249210       1.87602337       0.00000000
Si       1.26003151       0.37375776      -2.98255098       0.00000000
