10
Lattice="16.290000149 0.0 0.0 0.0 16.290000149 0.0 0.0 0.0 29.1751946751" Properties=species:S:1:pos:R:3:initial_magmoms:R:1 pbc="T T T"
Si      -1.36085032      -1.35505108      -1.35186182       0.00000000
Si      -1.36836001       1.35268903       1.35212440       0.00000000
Si       1.34962651      -1.35954712       1.36434880       0.00000000
Si       1.35534430       1.34403904      -1.37447260       0.00000000
Si       2.69055416       2.69467553       0.01951821       0.00000000
Si       0.01788642      -2.71472852      -2.68656863       0.00000000
Si      -2.69140124      -2.71296920       0.03066313       0.00000000
Si      -0.02173086       2.69032610      -2.73330729       0.00000000
Si       2.71523351      -0.00619020       2.71233032       0.00000000
Si      -2.71978983       2.71143794      -0.00717710       0.00000000
