10
Lattice="16.290000149 0.0 0.0 0.0 16.290000149 0.0 0.0 0.0 29.1751946751" Properties=species:S:1:pos:R:3:initial_magmoms:R:1 pbc="T T T"
Si      -1.34879572      -1.36283770      -1.34760224       0.00000000
Si       1.34436484      -1.38044719       1.34331349       0.00000000
Si      -1.38978136       1.34692237       1.33421083       0.00000000
Si       1.34830702       1.34851879      -1.37578548       0.00000000
Si      -0.03691314       2.73126287       2.65441756       0.00000000
Si       2.71270856      -0.02761155       2.67536535       0.00000000
Si      -2.69272073      -0.00490329      -2.70947115       0.00000000
Si       2.71391402       2.70187571      -0.02780396       0.00000000
Si      -0.03274290      -2.71358822       2.70421962       0.00000000
Si       0.01039302      -2.71832861      -2.70025179       0.00000000
