10
Lattice="16.290000149 0.0 0.0 0.0 16.290000149 0.0 0.0 0.0 29.1751946751" Properties=species:S:1:pos:R:3:initial_magmoms:R:1 pbc="T T T"
Si       1.30922731      -1.42405552      -1.30392027       0.00000000
Si       1.41250591       1.29893203       1.34226406       0.00000000
Si      -1.29964879      -1.48198276       1.27532449       0.00000000
Si      -1.29525049       1.49369527      -1.32206724       0.00000000
Si       2.56300346       0.06159249      -2.64142789       0.00000000
Si      -2.68320737      -0.11002266       2.62695874       0.00000000
Si      -2.65473245       0.14841819      -2.66424289       0.00000000
Si       0.03233565       2.65606823       2.66827665       0.00000000
Si      -0.07382628      -2.46440009      -2.92559429       0.00000000
Si      -2.73230543       2.69607647       0.03224851       0.00000000
