10
Lattice="16.290000149 0.0 0.0 0.0 16.290000149 0.0 0.0 0.0 29.1751946751" Properties=species:S:1:pos:R:3:initial_magmoms:R:1 pbc="T T T"
Si      -1.37047608       1.23536845      -1.45026975       0.00000000
Si       1.19534392      -1.40317174      -1.47830711       0.00000000
Si      -1.36692323      -1.43193988       1.29660400       0.00000000
Si       1.43510014       1.41025789       1.32388281       0.00000000
Si      -0.08000019       2.74144413       2.55776014       0.00000000
Si       2.55145385      -2.75680560      -0.17082076       0.00000000
Si       0.06374277      -2.64442088       2.68280503       0.00000000
Si      -2.78058900       2.55156788      -0.14184980       0.00000000
Si       2.71697654       2.63267579      -0.19856637       0.00000000
Si      -0.04732245       2.63039519      -2.80364868       0.00000000
