10
Lattice="16.290000149 0.0 0.0 0.0 16.290000149 0.0 0.0 0.0 29.1751946751" Properties=species:S:1:pos:R:3:initial_magmoms:R:1 pbc="T T T"
Si      -1.41873521       1.22012101      -1.37914063       0.00000000
Si      -1.30721224      -1.49099113       1.27647312       0.00000000
Si       1.51510033      -1.33118623      -1.23387733       0.00000000
Si       0.64635463       1.85152142       1.33406495       0.00000000
Si       0.03399723       2.59426397      -2.61678156       0.00000000
Si       0.24203682      -2.58600494       2.64619016       0.00000000
Si      -2.75820654       2.52206669       0.04417124       0.00000000
Si       0.08000019      -2.74144413      -2.55776014       0.00000000
Si      -2.70058880      -0.18987624      -2.69960994       0.00000000
Si      -0.98894962       3.52530264       1.20152204       0.00000000
