10
Lattice="16.290000149 0.0 0.0 0.0 16.290000149 0.0 0.0 0.0 29.1751946751" Properties=species:S:1:pos:R:3:initial_magmoms:R:1 pbc="T T T"
Si      -1.36601425      -1.35011521       1.35102157       0.00000000
Si       1.30515481       1.29456631       1.47536625       0.00000000
Si      -1.37181349       1.41038821      -1.30529821       0.00000000
Si       1.36427122      -1.34631964      -1.39019511       0.00000000
Si       2.66043395       2.63526590       0.16026518       0.00000000
Si       2.71246421      -2.70971120      -0.01400993       0.00000000
Si      -0.01366731      -2.66843234       2.75822874       0.00000000
Si      -2.72807003       0.02409291       2.69999505       0.00000000
Si      -2.71002071      -2.72018567      -0.01075689       0.00000000
Si      -2.78431941       0.11145618      -2.64756227       0.00000000
