10
Lattice="16.290000149 0.0 0.0 0.0 16.290000149 0.0 0.0 0.0 29.1751946751" Properties=species:S:1:pos:R:3:initial_magmoms:R:1 pbc="T T T"
H       -1.11882979       0.05328459       1.01990646       0.00000000
Si       0.20403225      -2.08885043      -0.99592445       0.00000000
Si       2.06451317       0.75561166       0.80838629       0.00000000
Si       0.07094295       1.37143882      -1.91202556       0.00000000
H       -0.58806901       1.09991710       2.54346430       0.00000000
H       -1.16616853       2.28872873      -1.49782532       0.00000000
H       -2.06148323       1.77640823       1.37698166       0.00000000
H        2.42189948      -2.32345901       0.56068889       0.00000000
Si       2.31137183      -1.47162232      -2.02820118       0.00000000
Si       3.29286063       0.52628103      -1.15326627       0.00000000
