10
Lattice="16.290000149 0.0 0.0 0.0 16.290000149 0.0 0.0 0.0 29.1751946751" Properties=species:S:1:pos:R:3:initial_magmoms:R:1 pbc="T T T"
Si       1.36601425       1.35011521      -1.35102157       0.00000000
Si      -1.34400646      -1.37007046      -1.36177847       0.00000000
Si       1.35234694      -1.31831713       1.40720716       0.00000000
Si      -1.36205578       1.37420812       1.34897348       0.00000000
Si       2.67116906       2.64468152       0.12434468       0.00000000
Si      -2.69951366      -2.68455944       0.03687745       0.00000000
Si       0.08394237      -2.74429488      -2.65471223       0.00000000
Si      -0.00579924       2.76050343      -2.65631978       0.00000000
Si       2.77109193      -2.64901466       0.10605183       0.00000000
Si      -2.71740008       0.03016908       2.72344607       0.00000000
