10
Lattice="16.290000149 0.0 0.0 0.0 16.290000149 0.0 0.0 0.0 29.1751946751" Properties=species:S:1:pos:R:3:initial_magmoms:R:1 pbc="T T T"
Si       1.40735827      -1.38075670       1.25955150       0.00000000
Si       1.37929060       1.32664132      -1.35580047       0.00000000
Si      -1.35562123       1.32227560       1.39909646       0.00000000
Si      -1.35694072      -1.38303730      -1.34553080       0.00000000
Si       0.00433314       2.67910229      -2.69748015       0.00000000
Si      -2.69387244       2.69016320       0.02217315       0.00000000
Si       0.12548187      -2.60317460       2.78200069       0.00000000
Si      -2.72689878      -0.03577284      -2.69756767       0.00000000
Si       0.04090419       2.75310777       2.67238948       0.00000000
Si       2.67050117      -0.04336398      -2.76350361       0.00000000
