10
Lattice="16.290000149 0.0 0.0 0.0 16.290000149 0.0 0.0 0.0 29.1751946751" Properties=species:S:1:pos:R:3:initial_magmoms:R:1 pbc="T T T"
Si       1.34786719       1.33108849       1.38978957       0.00000000
Si       1.32765130      -1.44314740      -1.31152128       0.00000000
Si      -1.33877737      -1.41939658       1.35985582       0.00000000
Si      -1.42609177       1.36681246      -1.33696497       0.00000000
H        0.48307995       1.64589275      -3.20970904       0.00000000
Si      -2.76232791       2.52040511       0.22117715       0.00000000
Si       2.65035044       2.68628618      -0.04163592       0.00000000
Si      -0.06753834      -2.76247452      -2.67974163       0.00000000
Si      -2.73745307      -0.07667703      -2.70880012       0.00000000
Si       2.69873174      -0.05297508       2.74990797       0.00000000
