10
Lattice="16.290000149 0.0 0.0 0.0 16.290000149 0.0 0.0 0.0 29.1751946751" Properties=species:S:1:pos:R:3:initial_magmoms:R:1 pbc="T T T"
Si      -1.35708733      -1.34879572      -1.35387491       0.00000000
Si      -1.34407162       1.33108849       1.38579257       0.00000000
Si       1.34006428       1.35371530      -1.38497567       0.00000000
Si       1.34545627      -1.38072412       1.35410831       0.00000000
Si       0.06732657      -2.70964604      -2.62311258       0.00000000
Si      -2.70736544       2.67066407       0.02255243       0.00000000
Si       2.70536666       2.68332140      -0.00668112       0.00000000
Si       2.69415588      -0.03518640      -2.71446011       0.00000000
Si      -2.69434973      -0.06019155       2.71440176       0.00000000
Si       2.69827074      -0.02837718       2.71373073       0.00000000
