10
Lattice="16.290000149 0.0 0.0 0.0 16.290000149 0.0 0.0 0.0 29.1751946751" Properties=species:S:1:pos:R:3:initial_magmoms:R:1 pbc="T T T"
Si       1.30096828       1.28272250       1.50346197       0.00000000
Si      -1.33312474      -1.36594518       1.40873594       0.00000000
Si       1.47901798      -1.30037793      -1.33812030       0.00000000
Si      -1.35573526       1.38467510      -1.40073027       0.00000000
Si      -0.02226843      -2.55814513      -2.69879303       0.00000000
Si      -2.60609051       2.72730831       0.08598280       0.00000000
Si       2.69941592      -2.71816181       0.10282301       0.00000000
Si       2.29081385       3.06954493       0.35187327       0.00000000
Si       0.17060517       2.76037701      -2.67556958       0.00000000
Si       2.37540782       2.37870231      -1.87756965       0.00000000
