10
Lattice="16.290000149 0.0 0.0 0.0 16.290000149 0.0 0.0 0.0 29.1751946751" Properties=species:S:1:pos:R:3:initial_magmoms:R:1 pbc="T T T"
Si      -1.35953083      -1.36295173       1.34322596       0.00000000
Si       1.35490447       1.35288451       1.36000170       0.00000000
Si       1.36866952      -1.37968156      -1.32140292       0.00000000
Si      -1.38421018       1.33791400      -1.34958616       0.00000000
Si      -0.02143764       2.69951366      -2.67953740       0.00000000
Si       2.71570592      -0.04219110       2.66503733       0.00000000
Si      -0.00501732      -2.70524774      -2.68534327       0.00000000
Si      -2.73460233       0.00087966       2.67440257       0.00000000
Si       2.72753246       2.69563664       0.01683409       0.00000000
Si      -0.00869886      -2.73813726       2.68659780       0.00000000
