10
Lattice="16.290000149 0.0 0.0 0.0 16.290000149 0.0 0.0 0.0 29.1751946751" Properties=species:S:1:pos:R:3:initial_magmoms:R:1 pbc="T T T"
Si       1.18206757       0.53165673       1.05561689       0.00000000
Si      -1.29166669      -0.55275229      -0.92181945       0.00000000
Si      -0.06450840      -2.40518594      -1.58631368       0.00000000
Si      -0.35543151       1.80685424       2.24899906       0.00000000
Si       2.85117845       1.31154049      -0.39115184       0.00000000
Si      -3.07690410      -1.14049549       0.51917259       0.00000000
Si       2.32490882      -0.96741424       2.43790465       0.00000000
Si      -2.31632399       0.78162679      -2.53692905       0.00000000
Si      -1.82923670       3.01555596       0.79298179       0.00000000
H       -0.33648624       0.68240440      -3.60856313       0.00000000
