10
Lattice="16.290000149 0.0 0.0 0.0 16.290000149 0.0 0.0 0.0 29.1751946751" Properties=species:S:1:pos:R:3:initial_magmoms:R:1 pbc="T T T"
Si       1.34407162      -1.33108849      -1.38579257       0.00000000
Si      -1.36329382       1.33957558      -1.36324015       0.00000000
Si      -1.35027811      -1.39128004       1.32860919       0.00000000
Si       1.37173204       1.34786719       1.35337893       0.00000000
Si      -2.73030176      -0.04463460       2.64884510       0.00000000
Si      -2.69899238      -0.06406857      -2.70138963       0.00000000
Si       2.68952789      -2.71181261      -0.03168426       0.00000000
Si      -2.71847522       2.69319314       0.00064185       0.00000000
Si       0.02562417       2.71316468       2.70051437       0.00000000
Si      -0.00868257       2.71107956      -2.70818745       0.00000000
