10
Lattice="16.290000149 0.0 0.0 0.0 16.290000149 0.0 0.0 0.0 29.1751946751" Properties=species:S:1:pos:R:3:initial_magmoms:R:1 pbc="T T T"
Si      -1.34552143      -1.33080830       1.34609388       0.00000000
Si       1.31515687      -1.32249226      -1.40083238       0.00000000
Si      -1.20370069       1.39644397      -1.44098037       0.00000000
Si       1.42982218       1.40356270       1.24080061       0.00000000
Si       2.30500244       0.46433016      -2.55242108       0.00000000
Si       0.67158784       2.19887309      -2.63372272       0.00000000
Si      -2.64867257      -2.65701305      -0.07777232       0.00000000
Si      -2.70148475       0.06431292       2.63426625       0.00000000
Si       0.05214429       2.75230956       2.59076604       0.00000000
Si       2.69866658      -2.64931168      -0.03840914       0.00000000
