10
Lattice="16.290000149 0.0 0.0 0.0 16.290000149 0.0 0.0 0.0 29.1751946751" Properties=species:S:1:pos:R:3:initial_magmoms:R:1 pbc="T T T"
Si       1.27858419      -1.37230056       1.38831914       0.00000000
Si      -1.34882065      -1.21096538      -1.48164476       0.00000000
Si      -1.43171977       1.30683431       1.35163134       0.00000000
Si       1.33535484       1.40680604      -1.35222009       0.00000000
Si      -1.63307414       0.61234273      -3.05447950       0.00000000
Si      -0.30087467       2.58748896      -2.56372355       0.00000000
Si       2.60832061      -2.68644746      -0.02946695       0.00000000
Si      -2.82415008      -2.52076186      -0.10896060       0.00000000
Si      -0.06904842       2.70148638       2.66937277       0.00000000
Si       2.58173533      -0.04609581       2.81218534       0.00000000
