10
Lattice="16.290000149 0.0 0.0 0.0 16.290000149 0.0 0.0 0.0 29.1751946751" Properties=species:S:1:pos:R:3:initial_magmoms:R:1 pbc="T T T"
H        1.20633967      -1.95965444       0.21537129       0.00000000
H       -1.96105538      -0.62499844      -1.09027703       0.00000000
Si       1.86483035       0.70907113       1.28426289       0.00000000
Si      -0.77349808      -1.86043205       1.28700536       0.00000000
Si      -1.76777453       1.55242072       0.63957862       0.00000000
Si       0.62941303      -0.32345424      -2.33398640       0.00000000
H       -2.61575048      -0.21045051      -1.12566654       0.00000000
H        2.83139751       0.45856350      -1.20359348       0.00000000
H        2.31840911       1.99159913       0.62146082       0.00000000
H       -0.41798511       2.17877123      -2.24826968       0.00000000
