10
Lattice="16.290000149 0.0 0.0 0.0 16.290000149 0.0 0.0 0.0 29.1751946751" Properties=species:S:1:pos:R:3:initial_magmoms:R:1 pbc="T T T"
Si       0.08459397      -0.69084262      -2.22944292       0.00000000
Si      -0.98984557      -1.78682242       1.15158870       0.00000000
Si       1.83886409       0.88076773       1.18467628       0.00000000
Si      -1.63341460       1.73454293      -0.08130164       0.00000000
H        2.53242713      -0.94900654      -0.73506028       0.00000000
Si      -2.30500244      -0.46433016       2.55242108       0.00000000
Si       0.55208440       2.32990985       2.51256777       0.00000000
Si      -2.12020868      -0.30916791      -3.02744285       0.00000000
Si      -2.07233237       1.98219980      -2.36280274       0.00000000
Si       2.02523798       0.33260922      -3.13635385       0.00000000
