10
Lattice="16.290000149 0.0 0.0 0.0 16.290000149 0.0 0.0 0.0 29.1751946751" Properties=species:S:1:pos:R:3:initial_magmoms:R:1 pbc="T T T"
Si       1.37867158       1.36293544       1.30538574       0.00000000
Si      -1.31737231       1.39142665      -1.34103782       0.00000000
Si       1.32594085      -1.35974260      -1.36589509       0.00000000
Si      -1.37003788      -1.35863488       1.33707000       0.00000000
Si      -2.62940150       0.03129309      -2.68552707       0.00000000
Si      -0.00610875       2.67783167       2.66290754       0.00000000
Si       2.73600327       0.04497669      -2.62294336       0.00000000
Si       2.70848945      -0.00314397       2.68114204       0.00000000
Si      -0.09368379      -2.78889690      -2.60090442       0.00000000
Si      -0.00619020      -2.72329706       2.67227278       0.00000000
