10
Lattice="16.290000149 0.0 0.0 0.0 16.290000149 0.0 0.0 0.0 29.1751946751" Properties=species:S:1:pos:R:3:initial_magmoms:R:1 pbc="T T T"
Si       1.35001747       1.34206795       1.31092902       0.00000000
Si      -1.30836394       1.42760674      -1.29876297       0.00000000
Si       1.44125776      -1.33126768      -1.27781518       0.00000000
Si      -1.36787131      -1.24916608       1.44011678       0.00000000
Si      -2.66123216       0.04326624      -2.61896970       0.00000000
Si       0.07291404      -2.68410332      -2.60986704       0.00000000
Si      -0.01176138      -2.60279993       2.74760313       0.00000000
Si      -2.67978647      -2.67677282       0.11550460       0.00000000
Si      -2.61053768       2.78440086       0.11477522       0.00000000
Si       0.06739173       2.76205098      -2.64980788       0.00000000
