10
Lattice="16.290000149 0.0 0.0 0.0 16.290000149 0.0 0.0 0.0 29.1751946751" Properties=species:S:1:pos:R:3:initial_magmoms:R:1 pbc="T T T"
Si      -1.38820123      -1.27435042      -1.37733118       0.00000000
Si       1.20370069      -1.39644397       1.44098037       0.00000000
Si      -1.41910336       1.38152233       1.28347225       0.00000000
Si       1.87528853       0.80242912      -1.19274235       0.00000000
Si       2.51885756      -2.71893623       0.04014799       0.00000000
Si       2.63352287       0.00711873       2.68178098       0.00000000
Si       2.68566716       2.66264939      -0.01514776       0.00000000
Si       3.50870313      -0.93211381      -1.11144071       0.00000000
Si      -0.09778887       2.72238482       2.67644192       0.00000000
Si      -2.72355608      -2.68115646      -0.02511109       0.00000000
