10
Lattice="16.290000149 0.0 0.0 0.0 16.290000149 0.0 0.0 0.0 29.1751946751" Properties=species:S:1:pos:R:3:initial_magmoms:R:1 pbc="T T T"
H        1.18990306       0.36877302       0.89903362       0.00000000
Si       0.85641418       1.47388663      -1.63783708       0.00000000
Si      -0.76043350      -2.11281302       1.16832067       0.00000000
Si       0.55838863      -2.38451393      -0.74169180       0.00000000
Si      -2.18538497       1.41460732       1.03461075       0.00000000
H        2.59959080      -1.65705140       1.34375112       0.00000000
Si      -3.40397472      -0.17185950      -0.38697978       0.00000000
H       -1.86111786      -1.56506176      -2.48423865       0.00000000
Si      -0.24557175      -1.20244636       3.26286625       0.00000000
Si       1.27048969       3.27344295      -0.13826125       0.00000000
