10
Lattice="16.290000149 0.0 0.0 0.0 16.290000149 0.0 0.0 0.0 29.1751946751" Properties=species:S:1:pos:R:3:initial_magmoms:R:1 pbc="T T T"
Si      -1.39307194       1.35172792       1.31343809       0.00000000
Si       1.33900543       1.34899120      -1.37327641       0.00000000
Si      -1.40080969      -1.36845775      -1.31515943       0.00000000
Si       1.35523027      -1.30886893       1.42529579       0.00000000
Si       2.58502754      -2.74040482       0.00959864       0.00000000
Si       2.68483637       2.67444335       0.03352230       0.00000000
Si      -0.05325201       2.64148868       2.74057191       0.00000000
Si      -2.89766523      -0.00482184       2.47703238       0.00000000
Si       2.66279600      -0.02262681      -2.74579427       0.00000000
Si      -2.73316881       2.69529455      -0.07337561       0.00000000
