10
Lattice="16.290000149 0.0 0.0 0.0 16.290000149 0.0 0.0 0.0 29.1751946751" Properties=species:S:1:pos:R:3:initial_magmoms:R:1 pbc="T T T"
Si       1.33842388      -1.36088290       1.36111036       0.00000000
Si      -1.35281447      -1.35234694      -1.35962242       0.00000000
Si      -1.32829802       1.34890975       1.39352400       0.00000000
Si       1.35852574       1.35294967      -1.36111036       0.00000000
Si       2.69129210       0.02345760       2.68131709       0.00000000
Si      -2.67061032       2.70733286       0.02544077       0.00000000
Si       0.03548451      -2.71270856      -2.68257162       0.00000000
Si      -2.68949043      -2.70909218       0.02275665       0.00000000
Si      -2.69827074       0.02837718      -2.71373073       0.00000000
Si       2.69955113       2.71559189       0.00318010       0.00000000
