10
Lattice="16.290000149 0.0 0.0 0.0 16.290000149 0.0 0.0 0.0 29.1751946751" Properties=species:S:1:pos:R:3:initial_magmoms:R:1 pbc="T T T"
Si      -1.34596126       1.34418565      -1.36601179       0.00000000
Si      -1.35461125      -1.37150398       1.34494730       0.00000000
Si       1.34195392      -1.30438918      -1.42269919       0.00000000
Si       1.35892810       1.34754139       1.36627437       0.00000000
Si      -2.76824118      -0.11507256      -2.59131162       0.00000000
Si       0.11393226       2.78177703      -2.57923017       0.00000000
Si      -2.69900867       2.67418271       0.03451426       0.00000000
Si       2.69281847      -2.68845275      -0.06258079       0.00000000
Si      -2.70979265      -0.01788642       2.70882930       0.00000000
Si       0.00868257      -2.71107956       2.70818745       0.00000000
