10
Lattice="16.290000149 0.0 0.0 0.0 16.290000149 0.0 0.0 0.0 29.1751946751" Properties=species:S:1:pos:R:3:initial_magmoms:R:1 pbc="T T T"
H        1.39724218       0.49200687       0.27786455       0.00000000
Si      -0.47895858       0.43761456      -2.19633783       0.00000000
Si      -0.46920087      -2.20035548       0.61536321       0.00000000
Si      -1.34276842       1.38264634       1.31410912       0.00000000
H        2.33989562      -1.23111676      -0.07921065       0.00000000
H        2.87065641      -0.18448425       1.44434719       0.00000000
Si       0.60633010      -2.09699543       2.71594805       0.00000000
Si       1.11425230       2.02623167      -2.76767567       0.00000000
H        2.29255688       1.00432738      -2.59694243       0.00000000
Si      -2.77667125      -1.99609517       1.20155122       0.00000000
