10
Lattice="16.290000149 0.0 0.0 0.0 16.290000149 0.0 0.0 0.0 29.1751946751" Properties=species:S:1:pos:R:3:initial_magmoms:R:1 pbc="T T T"
Si       1.34212497       1.46696338      -1.22851464       0.00000000
Si       1.39122303      -1.33913575       1.36619559       0.00000000
Si      -1.35813804       1.46057770       1.28425122       0.00000000
Si      -1.22067471      -1.48986712      -1.39811326       0.00000000
Si      -2.68083718      -2.66885588       0.01436587       0.00000000
Si       2.77917991       0.26458218      -2.58283039       0.00000000
Si      -2.66062129       0.10538001       2.71567672       0.00000000
Si      -0.00943191       2.70746318      -2.69095366       0.00000000
Si       0.04433486      -2.66758526       2.74631067       0.00000000
Si       0.03511798       2.74683612       2.71652280       0.00000000
