10
Lattice="16.290000149 0.0 0.0 0.0 16.290000149 0.0 0.0 0.0 29.1751946751" Properties=species:S:1:pos:R:3:initial_magmoms:R:1 pbc="T T T"
Si      -1.52541190      -1.32260140      -1.19720411       0.00000000
Si      -1.40913388       1.18459252       1.46275674       0.00000000
Si       1.37378458      -1.31711167       1.43886225       0.00000000
Si       0.78775183       1.52280225      -1.67833225       0.00000000
H        1.21459870      -2.21324087      -2.23344868       0.00000000
Si      -1.27146709       2.21847485      -2.56484971       0.00000000
Si      -0.18264348      -2.70524774      -2.51131323       0.00000000
Si      -2.55294765       0.22556763      -2.67866215       0.00000000
Si       0.04031775       2.62570856       2.73692501       0.00000000
H       -0.59595337       3.78683859       0.01196183       0.00000000
