10
Lattice="16.290000149 0.0 0.0 0.0 16.290000149 0.0 0.0 0.0 29.1751946751" Properties=species:S:1:pos:R:3:initial_magmoms:R:1 pbc="T T T"
Si      -1.39382128      -1.34284987      -1.32764641       0.00000000
Si      -1.35918874       1.35549091       1.35264955       0.00000000
Si       1.33061608      -1.36904419       1.37199270       0.00000000
Si       1.35980776       1.34514676      -1.37114662       0.00000000
Si      -0.03785796      -2.73797110      -2.61581878       0.00000000
Si       2.70731657       2.70215264      -0.00997792       0.00000000
Si      -2.70311375       2.71342532      -0.00921936       0.00000000
Si       2.68977224      -2.72717571       0.03323055       0.00000000
Si       2.70433550      -0.02106297       2.71367238       0.00000000
Si      -0.01039302       2.71832861       2.70025179       0.00000000
