10
Lattice="16.290000149 0.0 0.0 0.0 16.290000149 0.0 0.0 0.0 29.1751946751" Properties=species:S:1:pos:R:3:initial_magmoms:R:1 pbc="T T T"
Si      -0.45357876      -1.28252800       0.66280207       0.00000000
H        0.51298839      -1.53303562      -1.82505430       0.00000000
Si       1.55123155      -0.42793830      -2.03572838       0.00000000
Si       2.69854441      -0.59028445      -0.00714792       0.00000000
Si      -1.26335467      -0.29079279       2.60374025       0.00000000
Si      -2.31840911      -1.99159913      -0.62146082       0.00000000
Si       1.55014012      -2.65338038       0.57953607       0.00000000
Si      -2.75330325       1.02516229       1.30439378       0.00000000
Si      -1.82552258       2.85948147       0.13753187       0.00000000
Si       0.29799297       1.21643947      -3.19660938       0.00000000
