10
Lattice="10.86 0.0 0.0 0.0 10.86 0.0 0.0 0.0 10.86" Properties=species:S:1:pos:R:3:initial_magmoms:R:1 pbc="T T T"
Si       1.38224994      -1.32705942       1.36075800       0.00000000
Si      -1.44548772      -1.25450376      -1.46295060       0.00000000
Si      -1.70239188       1.41411318       1.29074358       0.00000000
Si       2.52565590      -2.54697408      -0.15993522       0.00000000
Si       2.52565590       0.16802592       2.55506478       0.00000000
Si      -0.18934410      -2.54697408       2.55506478       0.00000000
Si      -0.18934410      -2.54697408      -2.87493522       0.00000000
Si      -0.18934410       2.88302592       2.55506478       0.00000000
Si      -2.90434410      -2.54697408      -0.15993522       0.00000000
Si      -2.90434410       0.16802592       2.55506478       0.00000000
