10
Lattice="10.86 0.0 0.0 0.0 10.86 0.0 0.0 0.0 10.86" Properties=species:S:1:pos:R:3:initial_magmoms:R:1 pbc="T T T"
Si       1.67213592       0.52689462       1.52442906       0.00000000
Si       0.48344376      -1.05786174      -2.23061142       0.00000000
Si      -2.23155624      -1.05786174       0.48438858       0.00000000
Si       1.84094376      -2.41536174      -0.87311142       0.00000000
Si      -0.87405624      -2.41536174       1.84188858       0.00000000
Si       3.19844376      -1.05786174       0.48438858       0.00000000
Si       0.48344376      -1.05786174       3.19938858       0.00000000
Si      -2.23155624       1.65713826      -2.23061142       0.00000000
Si       2.70871206       1.80558360      -1.93902042       0.00000000
Si       0.48344376      -3.77286174       0.48438858       0.00000000
