10
Lattice="10.86 0.0 0.0 0.0 10.86 0.0 0.0 0.0 10.86" Properties=species:S:1:pos:R:3:initial_magmoms:R:1 pbc="T T T"
Si      -1.18343592       1.24611984      -1.40854200       0.00000000
Si      -1.18343592      -1.46888016       1.30645800       0.00000000
Si       1.53156408       1.24611984       1.30645800       0.00000000
Si       1.33713750      -1.23141540      -1.56198294       0.00000000
Si      -2.54093592       2.60361984      -0.05104200       0.00000000
Si      -2.54093592      -0.11138016       2.66395800       0.00000000
Si       0.17406408       2.60361984       2.66395800       0.00000000
Si      -2.54093592      -0.11138016      -2.76604200       0.00000000
Si      -0.04827270      -2.62452534       2.71434840       0.00000000
Si      -2.54093592      -2.82638016      -0.05104200       0.00000000
