10
Lattice="10.86 0.0 0.0 0.0 10.86 0.0 0.0 0.0 10.86" Properties=species:S:1:pos:R:3:initial_magmoms:R:1 pbc="T T T"
Si       1.51290660       1.04442792       1.56420924       0.00000000
Si       1.51290660      -1.67057208      -1.15079076       0.00000000
Si      -1.20209340      -1.67057208       1.56420924       0.00000000
Si       0.10280076       2.41298340      -2.37611370       0.00000000
Si      -2.72111418       2.45016804       0.21954576       0.00000000
Si       2.87040660       2.40192792       0.20670924       0.00000000
Si       0.15540660       2.40192792       2.92170924       0.00000000
Si       2.87040660      -0.31307208      -2.50829076       0.00000000
Si      -2.55959340      -0.31307208       2.92170924       0.00000000
Si      -2.72840124      -2.80081572      -0.11075028       0.00000000
