10
Lattice="10.86 0.0 0.0 0.0 10.86 0.0 0.0 0.0 10.86" Properties=species:S:1:pos:R:3:initial_magmoms:R:1 pbc="T T T"
Si       1.42549446      -1.10934900      -1.38019740       0.00000000
Si      -1.09820664      -1.50101490       1.62228852       0.00000000
Si      -1.28950554       1.60565100      -1.38019740       0.00000000
Si       1.42549446       1.60565100       1.33480260       0.00000000
Si      -2.55013434      -2.39919120       0.06163050       0.00000000
Si       0.06799446      -2.46684900      -2.73769740       0.00000000
Si       2.98194966      -2.32514772      -0.20694816       0.00000000
Si      -2.52508032       0.33073044       2.82110220       0.00000000
Si      -2.64700554       0.24815100      -2.73769740       0.00000000
Si       2.75251044       0.05024922       2.68436394       0.00000000
