10
Lattice="16.290000149 0.0 0.0 0.0 16.290000149 0.0 0.0 0.0 29.1751946751" Properties=species:S:1:pos:R:3:initial_magmoms:R:1 pbc="T T T"
Si       1.07991298      -1.42025995      -1.50015934       0.00000000
Si      -1.54660519       1.32372541      -1.18317084       0.00000000
Si      -1.05911065      -1.76093273       1.18232476       0.00000000
Si       2.13037364       0.97145416       0.67178803       0.00000000
Si       0.21655926       0.81148636       3.35832748       0.00000000
Si       2.37573362      -2.71306694      -0.07480520       0.00000000
Si      -0.20279421       2.70109379      -2.49698821       0.00000000
Si       2.49859280      -0.09568746      -2.73555378       0.00000000
Si      -1.39647655      -0.88907563       3.32576797       0.00000000
Si       0.53717904      -3.53706402       1.07659386       0.00000000
