10
Lattice="16.290000149 0.0 0.0 0.0 16.290000149 0.0 0.0 0.0 29.1751946751" Properties=species:S:1:pos:R:3:initial_magmoms:R:1 pbc="T T T"
Si      -1.34338744       1.35682669      -1.36860838       0.00000000
Si       1.32637580      -1.35018037      -1.39518698       0.00000000
Si      -1.34470693      -1.37111302       1.36195644       0.00000000
Si       1.34786393       1.37924173       1.35084069       0.00000000
Si       2.66548385      -2.70871751      -0.03279292       0.00000000
Si      -2.68618844       2.72300384      -0.01823450       0.00000000
Si      -2.71008587      -2.71107956      -0.01006544       0.00000000
Si      -2.72557767      -0.02557530       2.69829705       0.00000000
Si       2.71871957       0.03766248       2.70690374       0.00000000
Si       0.00505611       2.70930395      -2.72551751       0.00000000
