10
Lattice="16.290000149 0.0 0.0 0.0 16.290000149 0.0 0.0 0.0 29.1751946751" Properties=species:S:1:pos:R:3:initial_magmoms:R:1 pbc="T T T"
Si       1.04062150       1.09797859      -0.22508663       0.00000000
H       -0.40075029       1.46189719       1.93110614       0.00000000
Si      -2.22940055      -0.78442867      -1.12324500       0.00000000
Si      -0.93335185       0.17132193       2.50842489       0.00000000
Si       1.15734739      -1.11482245       2.31070459       0.00000000
Si      -0.16206921      -2.67902084       0.95741319       0.00000000
Si      -0.55006443      -2.46974321      -1.39288214       0.00000000
Si       2.53824755       0.01700676      -1.63728275       0.00000000
Si       2.23878848       0.98955235       1.77029246       0.00000000
Si      -0.21823713       2.74077624      -1.37642733       0.00000000
