10
Lattice="16.290000149 0.0 0.0 0.0 16.290000149 0.0 0.0 0.0 29.1751946751" Properties=species:S:1:pos:R:3:initial_magmoms:R:1 pbc="T T T"
H       -1.04062150      -1.09797859       0.22508663       0.00000000
Si       1.49762605      -1.08097183      -1.41219612       0.00000000
Si       1.19816698      -0.10842624       1.99537909       0.00000000
Si      -1.25885863       1.64279765      -1.15134071       0.00000000
H       -1.44137179       0.36391860       2.15619276       0.00000000
Si       0.11672589      -2.21280104       2.53579122       0.00000000
Si      -2.56126043      -0.02705769      -2.32511714       0.00000000
Si      -1.97397335      -0.92665666       2.73351151       0.00000000
Si       0.06669126      -2.51133158      -2.58075020       0.00000000
Si       3.06346485      -2.14718492      -0.03906559       0.00000000
