10
Lattice="16.290000149 0.0 0.0 0.0 16.290000149 0.0 0.0 0.0 29.1751946751" Properties=species:S:1:pos:R:3:initial_magmoms:R:1 pbc="T T T"
Si      -1.34555401       1.27975870       1.45943076       0.00000000
Si      -1.37468053      -1.40667409      -1.30904722       0.00000000
Si       1.34025976      -1.33553566       1.42153219       0.00000000
Si       1.34022718       1.42578226      -1.35304925       0.00000000
Si       2.67568139      -0.01070253      -2.65932191       0.00000000
Si       0.05553261      -2.78005143      -2.59040427       0.00000000
Si      -2.68172498      -2.69669549       0.16008429       0.00000000
Si      -2.77811292       2.59827131       0.17519704       0.00000000
Si      -2.72108162      -0.04556313      -2.68845918       0.00000000
Si       2.69068448       2.75445984       0.03177179       0.00000000
