10
Lattice="16.290000149 0.0 0.0 0.0 16.290000149 0.0 0.0 0.0 29.1751946751" Properties=species:S:1:pos:R:3:initial_magmoms:R:1 pbc="T T T"
Si      -1.30222471      -1.28877196       1.46870556       0.00000000
Si      -1.45298866       1.38484549      -1.21921680       0.00000000
Si       1.36075700       1.39782862       1.31646939       0.00000000
Si       1.42868956      -1.31319067      -1.34968827       0.00000000
Si      -2.62487499      -2.62445521       0.12821331       0.00000000
Si      -0.13620279       2.70611111      -2.59133146       0.00000000
Si       0.08524836      -2.52129781      -2.83877853       0.00000000
Si       2.71053989      -2.68224626       0.03504816       0.00000000
Si       2.65549598       0.04588893       2.74646238       0.00000000
Si       0.00969240       2.72686457       2.72023388       0.00000000
