10
Lattice="16.290000149 0.0 0.0 0.0 16.290000149 0.0 0.0 0.0 29.1751946751" Properties=species:S:1:pos:R:3:initial_magmoms:R:1 pbc="T T T"
Si      -0.93458174       0.81695980       1.99427043       0.00000000
Si      -1.86645120      -0.90586247      -1.12636674       0.00000000
Si       1.35558051       1.39075876      -1.34491812       0.00000000
Si       1.84113654      -1.16822107       0.93661127       0.00000000
H        2.64700285       1.45070596      -0.54201677       0.00000000
H       -2.92064227       0.20119128      -1.12094015       0.00000000
Si       0.51900592      -2.59630022       2.27721147       0.00000000
Si       1.96683018      -0.12386427      -3.09569238       0.00000000
Si      -0.65052812      -1.00583909       3.56617157       0.00000000
Si       0.39663055       2.78578551       2.50174377       0.00000000
