10
Lattice="16.290000149 0.0 0.0 0.0 16.290000149 0.0 0.0 0.0 29.1751946751" Properties=species:S:1:pos:R:3:initial_magmoms:R:1 pbc="T T T"
Si       1.36515088       1.35635428       1.34561833       0.00000000
Si       1.36876726      -1.36425493      -1.33572794       0.00000000
Si      -1.34881201      -1.34718301       1.37727342       0.00000000
Si      -1.34819299       1.35988921      -1.36534076       0.00000000
Si      -0.00944820       2.72096759       2.67749514       0.00000000
Si       2.71826345       0.01161477      -2.68271750       0.00000000
Si       2.71648784      -0.01940139       2.68688955       0.00000000
Si      -2.69602760      -2.71003700       0.02745386       0.00000000
Si       0.02298519      -2.72153774      -2.69838458       0.00000000
Si      -2.70801704       0.00444717      -2.71755268       0.00000000
