10
Lattice="16.290000149 0.0 0.0 0.0 16.290000149 0.0 0.0 0.0 29.1751946751" Properties=species:S:1:pos:R:3:initial_magmoms:R:1 pbc="T T T"
H        1.19521360       0.59036590       0.99291940       0.00000000
Si       1.23983191      -1.84559186      -0.65746301       0.00000000
Si      -1.05831244       1.31714425      -1.61076250       0.00000000
Si      -1.79660783      -0.60846409       1.43037227       0.00000000
H        0.99500950       1.25793010      -2.66427878       0.00000000
Si      -2.11755341       2.43739127       0.24521751       0.00000000
Si      -1.80136451      -0.72751141      -2.62950195       0.00000000
Si       2.44524305       1.06710904       2.00605721       0.00000000
H        3.30683745       0.66635875      -0.67260494       0.00000000
Si      -0.28579176      -2.57826719      -2.28030404       0.00000000
