10
Lattice="16.290000149 0.0 0.0 0.0 16.290000149 0.0 0.0 0.0 29.1751946751" Properties=species:S:1:pos:R:3:initial_magmoms:R:1 pbc="T T T"
Si      -1.38991168      -1.34519563      -1.27438126       0.00000000
Si       1.33107416      -1.40989951       1.30850748       0.00000000
Si      -1.42480486       1.36109467       1.26839159       0.00000000
Si       1.29585322       1.31162194      -1.46971210       0.00000000
Si       2.62760309       2.67208130      -0.09283547       0.00000000
Si       2.66565979      -0.03223791       2.65304633       0.00000000
Si      -0.06786414       2.71047683       2.62182887       0.00000000
Si      -0.13160691      -2.75191860      -2.63094320       0.00000000
Si      -2.74895382      -0.02632464       2.65021633       0.00000000
Si      -0.05408280      -2.74111833       2.67539453       0.00000000
