10
Lattice="16.290000149 0.0 0.0 0.0 16.290000149 0.0 0.0 0.0 29.1751946751" Properties=species:S:1:pos:R:3:initial_magmoms:R:1 pbc="T T T"
Si      -1.33410214      -1.33910154       1.32887468       0.00000000
Si       1.49719762      -1.23745357      -1.27829073       0.00000000
Si      -1.24771627       1.37129221      -1.41367822       0.00000000
Si       1.41845176       1.42876333       1.23717705       0.00000000
Si       0.65840923       2.16383330      -2.53894506       0.00000000
H       -0.55493515      -0.45524034      -3.33384658       0.00000000
Si       2.36291339       0.49466214      -2.65384981       0.00000000
Si       0.10037898      -2.68521104       2.58962237       0.00000000
Si      -2.66382227       0.07982100       2.61564665       0.00000000
Si      -2.69436602      -2.62284932      -0.07980583       0.00000000
