10
Lattice="16.290000149 0.0 0.0 0.0 16.290000149 0.0 0.0 0.0 29.1751946751" Properties=species:S:1:pos:R:3:initial_magmoms:R:1 pbc="T T T"
Si      -1.38087073       1.34553772       1.33634062       0.00000000
Si      -1.36537894      -1.33996654      -1.37202188       0.00000000
Si       1.34470693       1.37111302      -1.36195644       0.00000000
Si       1.34025976      -1.36533007       1.37456012       0.00000000
Si      -2.67885794       2.64596843      -0.12583261       0.00000000
Si       2.66053169      -2.70293456      -0.03072148       0.00000000
Si       0.00799839       2.70428663       2.66754640       0.00000000
Si      -2.73149094      -0.04543281       2.67907060       0.00000000
Si       2.73071553       0.01169622       2.68545997       0.00000000
Si      -0.01844028      -2.68889258      -2.73745017       0.00000000
