10
Lattice="16.290000149 0.0 0.0 0.0 16.290000149 0.0 0.0 0.0 29.1751946751" Properties=species:S:1:pos:R:3:initial_magmoms:R:1 pbc="T T T"
Si       1.34693866      -1.34892604      -1.36542829       0.00000000
Si      -1.35389449      -1.37468053       1.34205896       0.00000000
Si      -1.35659863       1.32857983      -1.38786401       0.00000000
Si       1.36537894       1.33996654       1.37202188       0.00000000
Si      -2.72626184      -0.01433520       2.66229486       0.00000000
Si      -0.01549179       2.68550426       2.70836250       0.00000000
Si       2.68377752      -2.72399753      -0.01277874       0.00000000
Si      -0.01146816      -2.71443530      -2.69657572       0.00000000
Si      -2.73452087       2.67652847      -0.06698625       0.00000000
Si       2.71008587       2.71107956       0.01006544       0.00000000
