10
Lattice="16.290000149 0.0 0.0 0.0 16.290000149 0.0 0.0 0.0 29.1751946751" Properties=species:S:1:pos:R:3:initial_magmoms:R:1 pbc="T T T"
Si      -1.32677164       1.35985663       1.36534076       0.00000000
Si       1.37819917      -1.34016202       1.35725923       0.00000000
Si       1.41066514       1.40555008      -1.25530068       0.00000000
Si      -1.41845176      -1.42876333      -1.23717705       0.00000000
Si       0.07874586      -2.66621690      -2.51546778       0.00000000
Si       2.66896991      -0.00117288      -2.61186262       0.00000000
Si      -2.66616803      -0.05747112      -2.65085527       0.00000000
Si       0.09104481       2.66732462      -2.72446429       0.00000000
Si       0.05162301       2.72442107       2.66929691       0.00000000
Si      -2.64621278       2.75068056       0.02602427       0.00000000
