10
Lattice="16.290000149 0.0 0.0 0.0 16.290000149 0.0 0.0 0.0 29.1751946751" Properties=species:S:1:pos:R:3:initial_magmoms:R:1 pbc="T T T"
Si      -1.29357262      -1.44217342       1.27495601       0.00000000
Si       1.30148956      -1.41487138      -1.34077525       0.00000000
Si      -1.43752735       1.62116110      -0.93594025       0.00000000
Si       1.18605862       1.14692662       1.69951344       0.00000000
Si      -0.81691093       2.03116412       2.65905642       0.00000000
Si      -2.32621202       0.17580478       2.59863459       0.00000000
Si       2.61965129       2.56879928       0.34076627       0.00000000
Si      -0.09190818       2.64177848      -2.57065558       0.00000000
Si       1.76995739      -0.61252372       3.19987700       0.00000000
Si       0.23056866      -2.45112716       2.77645740       0.00000000
