10
Lattice="16.290000149 0.0 0.0 0.0 16.290000149 0.0 0.0 0.0 29.1751946751" Properties=species:S:1:pos:R:3:initial_magmoms:R:1 pbc="T T T"
H        0.72022978       0.09648567       1.31985663       0.00000000
H       -1.38499210       0.81510274       1.66421145       0.00000000
Si       1.62465058      -0.77385646      -1.50465232       0.00000000
Si      -1.87362695      -1.45591876      -0.14088702       0.00000000
Si      -0.35375364       1.94906594      -1.36601179       0.00000000
H        1.82141750       1.91080073       0.40635211       0.00000000
H        2.34470117       1.41237559       0.12087283       0.00000000
Si      -0.79208497       0.92748745       3.06517513       0.00000000
Si       0.13572828      -1.79176970      -2.96854688       0.00000000
Si      -0.98929171      -3.23472162      -1.41887724       0.00000000
