10
Lattice="16.290000149 0.0 0.0 0.0 16.290000149 0.0 0.0 0.0 29.1751946751" Properties=species:S:1:pos:R:3:initial_magmoms:R:1 pbc="T T T"
Si      -1.89411977      -1.31421205      -0.43529390       0.00000000
Si       0.53191737       1.26026609      -1.93026005       0.00000000
H       -0.91649170      -1.07865865       1.99456218       0.00000000
Si      -1.60135588       1.53864753       1.07458077       0.00000000
Si       1.93696247      -1.50003208       0.30616449       0.00000000
H       -2.91659421      -1.37373571       0.68669656       0.00000000
Si       0.21077631       2.87199219       1.67141773       0.00000000
Si      -2.75766897       0.10632483      -2.03263581       0.00000000
Si      -0.00575037      -1.85041370       2.93905076       0.00000000
Si       1.56455677      -0.35771211      -3.25393864       0.00000000
