10
Lattice="16.290000149 0.0 0.0 0.0 16.290000149 0.0 0.0 0.0 29.1751946751" Properties=species:S:1:pos:R:3:initial_magmoms:R:1 pbc="T T T"
Si       1.22187610      -1.28787112      -1.60384798       0.00000000
Si      -1.28665687       1.34517934      -1.50797829       0.00000000
Si      -1.43359267      -1.42187266       1.35874717       0.00000000
Si       1.31921048       1.71541847       1.11425903       0.00000000
H        2.82581883       0.23363118       0.51491301       0.00000000
H        0.19093900       2.70840800       1.33791608       0.00000000
H       -0.88605318       0.90036460       3.41060943       0.00000000
Si      -2.61965129      -2.56879928      -0.34076627       0.00000000
Si       3.44837377      -1.07107077       0.94658919       0.00000000
Si       2.60528481      -2.73759969      -0.44731408       0.00000000
