10
Lattice="16.290000149 0.0 0.0 0.0 16.290000149 0.0 0.0 0.0 29.1751946751" Properties=species:S:1:pos:R:3:initial_magmoms:R:1 pbc="T T T"
Si       1.17331984      -0.51854328       0.81264587       0.00000000
H       -0.81557515       0.74126017      -1.63547389       0.00000000
H        0.63026011       1.64713079      -1.08309993       0.00000000
H       -0.58813417       0.10943622       2.29579607       0.00000000
Si      -1.90448021       0.58316572       1.72270772       0.00000000
Si      -1.65835460      -0.19241748      -2.44762378       0.00000000
Si       2.51449184      -1.58775373      -0.80147177       0.00000000
Si      -1.61725492       2.61242732       0.53904090       0.00000000
Si       0.46455822      -2.37389285       2.23960464       0.00000000
Si      -2.87800320      -1.41279913       0.85086538       0.00000000
