10
Lattice="16.290000149 0.0 0.0 0.0 16.290000149 0.0 0.0 0.0 29.1751946751" Properties=species:S:1:pos:R:3:initial_magmoms:R:1 pbc="T T T"
Si      -2.20872202      -0.09739791      -0.64421747       0.00000000
Si       1.25510216      -0.22415040      -1.94338889       0.00000000
Si       0.52122136       0.86744251       2.10618648       0.00000000
Si       0.74338438      -2.25214139      -0.24227082       0.00000000
Si       0.70591738       2.18343017      -1.15702987       0.00000000
H       -1.78264078       1.68941963       0.89048529       0.00000000
H       -2.23263574      -1.19964448      -1.68084132       0.00000000
H        2.03480672      -2.19219419       0.56063054       0.00000000
H        1.90240160       2.54119115      -0.26149727       0.00000000
H        3.29495227       0.47754135       0.14724721       0.00000000
