10
Lattice="16.290000149 0.0 0.0 0.0 16.290000149 0.0 0.0 0.0 29.1751946751" Properties=species:S:1:pos:R:3:initial_magmoms:R:1 pbc="T T T"
Si       2.23692653      -0.49681242       0.28839680       0.00000000
Si      -1.04172922       0.67222640       2.08010385       0.00000000
Si      -0.06188571       2.06645168      -1.28650938       0.00000000
Si      -0.64343872      -1.77723902      -1.58584688       0.00000000
Si      -2.36925020       1.97905257      -0.92050657       0.00000000
H       -0.57412477      -2.90336673       1.53155184       0.00000000
Si       2.78656743      -1.54386847      -1.70922878       0.00000000
Si      -3.11640735       1.38336799       1.23130992       0.00000000
Si       3.48653244       1.28788904      -0.52912133       0.00000000
Si       1.17353161      -3.24443046      -1.74178830       0.00000000
