10
Lattice="16.290000149 0.0 0.0 0.0 16.290000149 0.0 0.0 0.0 29.1751946751" Properties=species:S:1:pos:R:3:initial_magmoms:R:1 pbc="T T T"
Si      -1.35687556      -1.34135119       1.31358688       0.00000000
Si      -1.40556637       1.36436896      -1.25258155       0.00000000
Si       1.33837012      -1.15199623      -1.55769865       0.00000000
Si       1.42172605       1.45925821       1.22480677       0.00000000
Si       0.42621156       2.38420442      -2.19912698       0.00000000
Si       2.16717275       0.84211156      -2.66030074       0.00000000
Si       0.07568334      -2.65986380       2.59782060       0.00000000
Si       2.76146454      -2.51384024      -0.21465941       0.00000000
Si      -2.69226461       0.10006947       2.60275121       0.00000000
Si      -2.66263310      -2.63754650      -0.16027977       0.00000000
