10
Lattice="16.290000149 0.0 0.0 0.0 16.290000149 0.0 0.0 0.0 29.1751946751" Properties=species:S:1:pos:R:3:initial_magmoms:R:1 pbc="T T T"
Si       1.35495334       1.35441577      -1.33342310       0.00000000
Si       1.39729105      -1.44961453       1.19189423       0.00000000
Si      -1.37749870      -1.36638892      -1.33558206       0.00000000
Si      -1.30409596       1.34716672       1.43045979       0.00000000
Si      -0.02138877      -2.77418703       2.42728867       0.00000000
Si       2.66188376       2.66871253       0.11209110       0.00000000
Si      -0.02067201       2.69951204      -2.66953031       0.00000000
Si       2.70684416      -0.03176550      -2.66970536       0.00000000
Si      -2.64790694      -0.03020166       2.74427716       0.00000000
Si      -2.70620885       2.68649470       0.07098325       0.00000000
