10
Lattice="16.290000149 0.0 0.0 0.0 16.290000149 0.0 0.0 0.0 29.1751946751" Properties=species:S:1:pos:R:3:initial_magmoms:R:1 pbc="T T T"
Si       1.36954918      -1.34693866       1.34170885       0.00000000
Si       1.37995849       1.34390872      -1.33409413       0.00000000
Si      -1.34993602       1.37668420       1.34885678       0.00000000
Si      -1.37995849      -1.34504902      -1.35623810       0.00000000
Si      -0.05452263       2.69001822      -2.59484181       0.00000000
Si      -0.00573408      -2.68912064       2.68303843       0.00000000
Si      -2.72759763       0.02177973       2.68012091       0.00000000
Si       2.72391608      -2.70068654      -0.02336933       0.00000000
Si       2.72715779       0.01598049       2.69934736       0.00000000
Si      -0.04456944      -2.78646969      -2.64540243       0.00000000
