10
Lattice="16.290000149 0.0 0.0 0.0 16.290000149 0.0 0.0 0.0 29.1751946751" Properties=species:S:1:pos:R:3:initial_magmoms:R:1 pbc="T T T"
Si       1.36466218       1.36122499      -1.32840496       0.00000000
Si      -1.34931700       1.36554184       1.35565460       0.00000000
Si       1.38406357      -1.33639903       1.35081151       0.00000000
Si      -1.33509583      -1.35197227      -1.39361152       0.00000000
Si       2.70005123      -0.08019567      -2.61756929       0.00000000
Si      -0.02090007       2.71660187      -2.66754640       0.00000000
Si      -2.68960934      -2.69485472      -0.01677574       0.00000000
Si       0.02373453      -2.69838965       2.69418335       0.00000000
Si      -2.71801910       0.02280600       2.69861798       0.00000000
Si       0.01702305       2.72805374       2.70795404       0.00000000
