10
Lattice="16.290000149 0.0 0.0 0.0 16.290000149 0.0 0.0 0.0 29.1751946751" Properties=species:S:1:pos:R:3:initial_magmoms:R:1 pbc="T T T"
H        0.84277945       0.93367765       0.81214989       0.00000000
Si      -1.29582064       1.29280699      -1.42535414       0.00000000
Si       1.43079958      -1.44563977      -1.11653470       0.00000000
Si      -1.83855458      -0.82399708       1.15139906       0.00000000
H        1.65835460       0.19241748       2.44762378       0.00000000
H        2.28861470       1.83954827       1.36452385       0.00000000
Si      -2.37573362       2.71306694       0.07480520       0.00000000
Si       2.78141979      -0.05466924      -2.45926468       0.00000000
Si      -1.21964860      -1.22038165       3.29848916       0.00000000
Si       0.07064973      -2.75450871      -2.50533232       0.00000000
