10
Lattice="16.290000149 0.0 0.0 0.0 16.290000149 0.0 0.0 0.0 29.1751946751" Properties=species:S:1:pos:R:3:initial_magmoms:R:1 pbc="T T T"
Si      -0.11512143       2.30470922       0.23465609       0.00000000
Si       1.60371793       0.06724512      -1.78327542       0.00000000
Si       0.28645965      -0.87967630       2.24007145       0.00000000
Si      -2.13037364      -0.97145416      -0.67178803       0.00000000
H        1.08813943      -2.75084346       0.06555666       0.00000000
H        2.53397468      -1.84497284       0.61793062       0.00000000
Si      -1.86447197       1.99341546       1.72346628       0.00000000
Si      -1.91381438      -0.15996780       2.68653945       0.00000000
Si       3.18057366      -1.01475298      -0.45457871       0.00000000
Si      -1.05046066      -2.39171411      -2.17194737       0.00000000
