10
Lattice="16.290000149 0.0 0.0 0.0 16.290000149 0.0 0.0 0.0 29.1751946751" Properties=species:S:1:pos:R:3:initial_magmoms:R:1 pbc="T T T"
Si       1.36032904       1.36199062      -1.34337184       0.00000000
Si      -1.36515088      -1.35635428      -1.34561833       0.00000000
Si       1.35133696      -1.37575567       1.34127122       0.00000000
Si      -1.37459908       1.36461331       1.33187681       0.00000000
Si      -0.02373453       2.69838965      -2.69418335       0.00000000
Si       2.72797229      -0.01793529      -2.66576671       0.00000000
Si       0.00361638      -2.72060921      -2.68134627       0.00000000
Si       2.72859131      -0.03554478       2.67320639       0.00000000
Si      -0.02637351       2.72719037       2.67904143       0.00000000
Si      -2.71396289      -2.70353729       0.03165509       0.00000000
