10
Lattice="16.290000149 0.0 0.0 0.0 16.290000149 0.0 0.0 0.0 29.1751946751" Properties=species:S:1:pos:R:3:initial_magmoms:R:1 pbc="T T T"
Si      -1.34717324       1.33604065      -1.37613558       0.00000000
Si       1.31590621       1.47012364       1.27294292       0.00000000
Si      -1.40898401      -1.29283957       1.39288214       0.00000000
Si       1.41822370      -1.35343349      -1.33847041       0.00000000
H        2.21679209       0.57775744       2.09334939       0.00000000
H        0.19495872       0.22866273       3.51164313       0.00000000
Si      -2.63925596      -2.65326635      -0.05441174       0.00000000
Si      -0.02557530      -2.74256814       2.54941604       0.00000000
Si      -2.62020433       2.69803127       0.04463805       0.00000000
Si       0.07514577      -2.70089831      -2.72551751       0.00000000
