10
Lattice="16.290000149 0.0 0.0 0.0 16.290000149 0.0 0.0 0.0 29.1751946751" Properties=species:S:1:pos:R:3:initial_magmoms:R:1 pbc="T T T"
Si       1.81835498      -0.88725115       1.14985277       0.00000000
Si      -0.88433524       1.77880286       1.27799023       0.00000000
Si       1.12501999       1.44295192      -1.54966964       0.00000000
Si      -1.02830626      -2.14713605      -0.39354420       0.00000000
H       -1.93639232      -0.58073851      -1.87751130       0.00000000
Si       2.61394229       2.46086516      -0.08577507       0.00000000
Si      -0.05564664      -2.54959842      -2.54743212       0.00000000
Si      -1.97061761       0.62635051       2.98648963       0.00000000
Si       0.98929171       3.23472162       1.41887724       0.00000000
H        3.19297035      -0.63540775      -1.76200671       0.00000000
