10
Lattice="16.290000149 0.0 0.0 0.0 16.290000149 0.0 0.0 0.0 29.1751946751" Properties=species:S:1:pos:R:3:initial_magmoms:R:1 pbc="T T T"
Si      -1.23983191       1.84559186       0.65746301       0.00000000
Si      -1.52562367      -0.73267534      -1.62284103       0.00000000
Si       1.64092430       0.72513307      -1.54984469       0.00000000
Si       0.05830191      -1.47939265       1.92705078       0.00000000
H        0.31680792      -2.61917790      -0.92392006       0.00000000
H       -0.04461831       2.43595775       1.65038241       0.00000000
H        1.61701057      -0.37711350      -2.58646853       0.00000000
H        2.06700554       2.51195060      -0.01514193       0.00000000
Si      -2.76394062      -2.05874651      -0.13753187       0.00000000
H       -0.24482241       3.10352196      -2.00681577       0.00000000
