10
Lattice="16.290000149 0.0 0.0 0.0 16.290000149 0.0 0.0 0.0 29.1751946751" Properties=species:S:1:pos:R:3:initial_magmoms:R:1 pbc="T T T"
Si      -1.37772676       1.36674730       1.31142500       0.00000000
Si      -1.37841094      -1.33633387      -1.34313844       0.00000000
Si       1.35596332       1.35513253      -1.35717171       0.00000000
Si       1.35619138      -1.35052246       1.36747055       0.00000000
Si      -0.00047241       2.70695819       2.64336016       0.00000000
Si      -0.00736308      -2.68299560      -2.68006256       0.00000000
Si      -2.73282672       0.01591533       2.67148505       0.00000000
Si      -0.00109143       2.72456768      -2.69561294       0.00000000
Si       2.71637381      -2.70383051       0.01677574       0.00000000
Si      -2.72829809      -2.70106121       0.01248698       0.00000000
