10
Lattice="16.290000149 0.0 0.0 0.0 16.290000149 0.0 0.0 0.0 29.1751946751" Properties=species:S:1:pos:R:3:initial_magmoms:R:1 pbc="T T T"
Si      -1.37121076       1.35718507       1.33170176       0.00000000
Si      -1.37256283      -1.34820928      -1.34237988       0.00000000
Si       1.34988715       1.36472734      -1.35562542       0.00000000
Si       1.36958176      -1.34410420       1.36253994       0.00000000
Si      -0.00452862       2.71697654       2.65899807       0.00000000
Si      -0.01319490      -2.70669755      -2.68105451       0.00000000
Si       2.72093501       0.01806561      -2.69254954       0.00000000
Si       2.71976213      -2.69451426      -0.00916101       0.00000000
Si      -2.70273908       0.02140506      -2.71396413       0.00000000
Si      -2.71753040      -2.70282868       0.02246490       0.00000000
