10
Lattice="16.290000149 0.0 0.0 0.0 16.290000149 0.0 0.0 0.0 29.1751946751" Properties=species:S:1:pos:R:3:initial_magmoms:R:1 pbc="T T T"
Si       1.72450829       0.93292831       1.27916424       0.00000000
Si      -0.86571577      -1.73211572       1.37555908       0.00000000
Si       0.73412515      -0.62639938      -2.17653838       0.00000000
Si      -1.70450417       1.66917116       0.11490475       0.00000000
H       -2.91784854      -0.94990249      -0.67999677       0.00000000
Si       0.46620351       2.33965127       2.63572618       0.00000000
Si      -2.36291339      -0.49466214       2.65384981       0.00000000
Si      -0.84307267      -2.31320934      -2.63248832       0.00000000
Si       2.97869169      -1.15041610      -1.91229864       0.00000000
Si      -2.36061650       2.09012105      -2.01575388       0.00000000
