10
Lattice="16.290000149 0.0 0.0 0.0 16.290000149 0.0 0.0 0.0 29.1751946751" Properties=species:S:1:pos:R:3:initial_magmoms:R:1 pbc="T T T"
Si       0.02391372       1.10224657       1.03662384       0.00000000
H        1.07699218       1.80804341      -2.07269336       0.00000000
Si       2.23263574       1.19964448       1.68084132       0.00000000
Si      -1.61701057       0.37711350       2.58646853       0.00000000
H       -1.30020265      -2.24206440       1.66254847       0.00000000
Si      -2.55050903      -1.43799976      -1.09231929       0.00000000
Si      -0.54753948      -2.32223726      -2.05186227       0.00000000
Si      -0.45033705       3.19502289       0.08201147       0.00000000
Si       2.20526366       0.81505387      -2.29635040       0.00000000
Si      -3.14263425      -0.35556183       0.96362750       0.00000000
