10
Lattice="16.290000149 0.0 0.0 0.0 16.290000149 0.0 0.0 0.0 29.1751946751" Properties=species:S:1:pos:R:3:initial_magmoms:R:1 pbc="T T T"
Si       1.35073423       1.39594259      -1.30814279       0.00000000
Si      -1.32268285       1.35207001       1.38526742       0.00000000
Si      -1.33662709      -1.32566392      -1.40491691       0.00000000
Si       1.38556225      -1.35537688       1.33914144       0.00000000
Si       2.67226049      -0.09107739      -2.51619132       0.00000000
Si       0.02090007      -2.71660187       2.66754640       0.00000000
Si       2.71099811       2.67969036       0.10053772       0.00000000
Si      -0.03160260       2.72035346      -2.67248284       0.00000000
Si      -2.71174745      -0.00676035       2.68738553       0.00000000
Si      -2.69399135       2.71177678       0.07302551       0.00000000
