10
Lattice="16.290000149 0.0 0.0 0.0 16.290000149 0.0 0.0 0.0 29.1751946751" Properties=species:S:1:pos:R:3:initial_magmoms:R:1 pbc="T T T"
Si      -0.61890598       0.39638457      -2.14709010       0.00000000
Si       1.49565007      -1.79701508       0.11667160       0.00000000
Si       0.97352299       1.99596485       0.87184234       0.00000000
Si      -2.12413457      -0.60382144       1.00377257       0.00000000
H        0.57432025      -1.14051178       2.49065719       0.00000000
H        0.05103657      -0.64208665       2.77613647       0.00000000
H        2.28986903       1.52223535       1.44493069       0.00000000
H        2.87800320       1.41279913      -0.85086538       0.00000000
Si      -2.29902401       1.52129053       1.94000457       0.00000000
Si      -0.14573034      -3.32674383       0.86513205       0.00000000
