10
Lattice="16.290000149 0.0 0.0 0.0 16.290000149 0.0 0.0 0.0 29.1751946751" Properties=species:S:1:pos:R:3:initial_magmoms:R:1 pbc="T T T"
H       -0.41908458      -1.87015718       1.13602373       0.00000000
Si       0.34287692      -0.85082671       2.22933498       0.00000000
Si       1.08144109       2.10437480      -0.54041213       0.00000000
Si      -1.31941660      -1.56419839      -1.35329141       0.00000000
Si      -2.09069924       1.28614438       0.19772029       0.00000000
Si       2.06947358      -1.37614663      -0.91149143       0.00000000
H       -1.15734739       1.11482245      -2.31070459       0.00000000
H       -1.55809768       2.57671964      -0.37959846       0.00000000
H       -2.73091253      -1.27858582      -0.85565011       0.00000000
Si      -0.11672589       2.21280104      -2.53579122       0.00000000
