10
Lattice="16.290000149 0.0 0.0 0.0 16.290000149 0.0 0.0 0.0 29.1751946751" Properties=species:S:1:pos:R:3:initial_magmoms:R:1 pbc="T T T"
H       -1.41149593       0.28561257       0.49764130       0.00000000
Si       0.47425077      -2.09277632       0.95461237       0.00000000
Si      -0.38799522       0.20927763      -2.35029533       0.00000000
Si       1.31941660       1.56419839       1.35329141       0.00000000
H        0.90033202      -0.30595878       2.48931514       0.00000000
H        0.16206921       2.67902084      -0.95741319       0.00000000
H        1.52732924      -1.38697948      -2.15470483       0.00000000
H        0.45033705      -3.19502289      -0.08201147       0.00000000
Si      -0.77128264       2.85034278       1.55101170       0.00000000
Si       3.38889018       0.18805176       0.44179997       0.00000000
