10
Lattice="16.290000149 0.0 0.0 0.0 16.290000149 0.0 0.0 0.0 29.1751946751" Properties=species:S:1:pos:R:3:initial_magmoms:R:1 pbc="T T T"
Si       1.31013955       1.35606106      -1.39098576       0.00000000
Si      -1.36834372       1.48357918       1.22573745       0.00000000
Si       1.60160023      -1.29935557       1.20680275       0.00000000
Si      -1.49245723      -1.33581259      -1.31250448       0.00000000
Si      -1.69642433      -2.36576414       2.10274381       0.00000000
Si      -2.24560910       0.04181643       2.88910283       0.00000000
Si       2.38022966      -0.10772577      -2.86383711       0.00000000
Si       3.47522718       0.15656319       1.34768977       0.00000000
Si       3.12147354       2.10562913      -0.01832202       0.00000000
H        2.09023508       0.97166593       3.01190122       0.00000000
