10
Lattice="16.290000149 0.0 0.0 0.0 16.290000149 0.0 0.0 0.0 29.1751946751" Properties=species:S:1:pos:R:3:initial_magmoms:R:1 pbc="T T T"
Si      -1.41867982      -1.32457249       1.23539444       0.00000000
Si       1.36057339      -1.37161801      -1.26068934       0.00000000
Si       1.23549877       1.13438674       1.62406639       0.00000000
Si      -1.39729105       1.44961453      -1.19189423       0.00000000
Si      -0.36821916       1.06714162       3.40734181       0.00000000
Si       2.69794982       0.07653042      -2.51504766       0.00000000
Si      -2.49859280       0.09568746       2.73555378       0.00000000
Si      -0.06046848      -2.68102451      -2.57386485       0.00000000
Si      -0.12285918      -2.61737948       2.66074858       0.00000000
Si       2.52752384       2.72841213       0.35100677       0.00000000
