10
Lattice="16.290000149 0.0 0.0 0.0 16.290000149 0.0 0.0 0.0 29.1751946751" Properties=species:S:1:pos:R:3:initial_magmoms:R:1 pbc="T T T"
Si      -1.33910806       1.35853714      -1.36239407       0.00000000
Si       1.35031069       1.38779398       1.32149044       0.00000000
Si       1.38792430      -1.35114148      -1.33333557       0.00000000
Si      -1.34965909      -1.36533007       1.36402788       0.00000000
Si       2.65944026      -0.04038291       2.61719001       0.00000000
Si      -2.66548385       2.70871751       0.03279292       0.00000000
Si       0.04070871      -2.71399547      -2.68315513       0.00000000
Si      -2.69068448       0.00550602      -2.72332937       0.00000000
Si      -2.69179220      -2.72635958       0.00994874       0.00000000
Si       0.02026476       2.70949943      -2.72420463       0.00000000
