10
Lattice="16.290000149 0.0 0.0 0.0 16.290000149 0.0 0.0 0.0 29.1751946751" Properties=species:S:1:pos:R:3:initial_magmoms:R:1 pbc="T T T"
Si       1.35863488      -1.35812989       1.29957987       0.00000000
Si       1.36984240       1.25266843      -1.43445680       0.00000000
Si      -1.31015584      -1.43096248      -1.32198642       0.00000000
Si      -1.20021463       1.40382334       1.47250125       0.00000000
Si      -2.56907312       2.64235205       0.02856252       0.00000000
Si       2.71940375       2.59682150      -0.12393623       0.00000000
Si      -2.63925695      -0.07227873      -2.68761893       0.00000000
Si       2.74289393      -0.00669519       2.59545449       0.00000000
Si      -2.56855835      -0.02324583       2.77158514       0.00000000
Si       0.01132155      -2.66550014       2.69018635       0.00000000
