10
Lattice="16.290000149 0.0 0.0 0.0 16.290000149 0.0 0.0 0.0 29.1751946751" Properties=species:S:1:pos:R:3:initial_magmoms:R:1 pbc="T T T"
Si       1.36944493       1.36974466       1.32490394       0.00000000
Si      -1.32602230       1.38298843      -1.35895139       0.00000000
Si       1.37899575      -1.34999630      -1.34019174       0.00000000
Si      -1.35149986      -1.34970145       1.37385992       0.00000000
Si      -2.68358204      -2.70469388      -0.00834411       0.00000000
Si      -2.69431715       0.03319902      -2.69616727       0.00000000
Si       0.00488700       2.72205902       2.67440257       0.00000000
Si       2.69806385       0.00969255       2.69876386       0.00000000
Si       2.70493823       0.03323160      -2.69960994       0.00000000
Si      -2.69035868       2.73162126      -0.00939441       0.00000000
