10
Lattice="16.290000149 0.0 0.0 0.0 16.290000149 0.0 0.0 0.0 29.1751946751" Properties=species:S:1:pos:R:3:initial_magmoms:R:1 pbc="T T T"
Si       1.32027193      -1.33760449      -1.40528160       0.00000000
Si       1.39045577       1.37702629       1.31089985       0.00000000
Si      -1.34025976       1.36533007      -1.37456012       0.00000000
Si      -1.35532801      -1.34682463       1.39294049       0.00000000
Si      -0.00851967       2.69736338       2.62833494       0.00000000
Si       2.64937304      -2.69628824      -0.03964909       0.00000000
Si      -2.69935076      -2.67411755      -0.01350812       0.00000000
Si      -2.72113049       2.71086779      -0.03821951       0.00000000
Si       2.66993102       0.02772558      -2.76930948       0.00000000
Si       0.03473989      -2.70291827       2.74421881       0.00000000
