10
Lattice="10.86 0.0 0.0 0.0 10.86 0.0 0.0 0.0 10.86" Properties=species:S:1:pos:R:3:initial_magmoms:R:1 pbc="T T T"
Si       1.35750000       1.35750000       1.35750000       0.00000000
Si       1.35750000      -1.35750000      -1.35750000       0.00000000
Si      -1.35750000       1.35750000      -1.35750000       0.00000000
Si      -1.35750000      -1.35750000       1.35750000       0.00000000
Si       2.41682784       0.00862284       2.59454088       0.00000000
Si       2.61202548       2.51319948       0.03031026       0.00000000
Si       2.50037382      -2.66188374       0.18469602       0.00000000
Si      -2.52327756      -2.64429054      -0.13273092       0.00000000
Si       2.82605436      -0.04611156      -2.53159632       0.00000000
Si       0.00000000       2.71500000       2.71500000       0.00000000
