10
Lattice="10.86 0.0 0.0 0.0 10.86 0.0 0.0 0.0 10.86" Properties=species:S:1:pos:R:3:initial_magmoms:R:1 pbc="T T T"
Si      -1.05932784       1.34887716      -1.23704088       0.00000000
Si      -1.05932784      -1.36612284       1.47795912       0.00000000
Si       1.51069116      -1.56490428      -1.22640894       0.00000000
Si       1.65567216       1.34887716       1.47795912       0.00000000
Si      -2.41682784      -0.00862284      -2.59454088       0.00000000
Si       0.19519764       2.50457664      -2.56423062       0.00000000
Si       0.08354598      -2.67050658      -2.40984486       0.00000000
Si      -2.41682784       2.70637716       0.12045912       0.00000000
Si      -2.41682784      -2.72362284       0.12045912       0.00000000
Si      -2.41682784      -0.00862284       2.83545912       0.00000000
