10
Lattice="10.86 0.0 0.0 0.0 10.86 0.0 0.0 0.0 10.86" Properties=species:S:1:pos:R:3:initial_magmoms:R:1 pbc="T T T"
Si      -1.28248998      -1.38795144       1.32512634       0.00000000
Si      -1.28248998       1.32704856      -1.38987366       0.00000000
Si       1.43251002      -1.38795144      -1.38987366       0.00000000
Si      -2.52893562       2.63843700       0.15103002       0.00000000
Si      -2.63998998      -2.74545144      -0.03237366       0.00000000
Si      -2.63998998      -0.03045144      -2.74737366       0.00000000
Si       0.07501002      -2.74545144       2.68262634       0.00000000
Si       0.07501002       2.68454856      -2.74737366       0.00000000
Si       2.74965426       2.72734782      -0.29376300       0.00000000
Si       0.07501002      -2.74545144      -2.74737366       0.00000000
