10
Lattice="10.86 0.0 0.0 0.0 10.86 0.0 0.0 0.0 10.86" Properties=species:S:1:pos:R:3:initial_magmoms:R:1 pbc="T T T"
Si       1.10219226      -1.35567552      -1.35390534       0.00000000
Si       1.10219226       1.35932448       1.36109466       0.00000000
Si      -1.61280774      -1.35567552       1.36109466       0.00000000
Si       2.45969226       0.00182448      -2.71140534       0.00000000
Si       2.45969226      -2.71317552       0.00359466       0.00000000
Si       2.45969226       2.71682448       0.00359466       0.00000000
Si       2.45969226       0.00182448       2.71859466       0.00000000
Si      -0.25530774      -2.71317552      -2.71140534       0.00000000
Si      -0.25530774      -2.71317552       2.71859466       0.00000000
Si      -3.01962300       0.18479376       2.53155288       0.00000000
