10
Lattice="10.86 0.0 0.0 0.0 10.86 0.0 0.0 0.0 10.86" Properties=species:S:1:pos:R:3:initial_magmoms:R:1 pbc="T T T"
Si      -1.48547424       1.48481178       0.66109164       0.00000000
Si      -0.17978730      -1.73325600       1.40451294       0.00000000
Si       0.92417514       1.23648702      -1.75399860       0.00000000
Si      -1.56067974      -1.09644732      -1.87340430       0.00000000
Si      -2.90857950       0.37701576       2.06475750       0.00000000
Si      -0.19357950       3.09201576       2.06475750       0.00000000
Si      -2.90857950      -2.33798424      -0.65024250       0.00000000
Si      -1.57769736      -1.17636606       3.26713326       0.00000000
Si      -1.69603878      -3.44338020       0.69249876       0.00000000
Si       2.52142050       3.09201576      -0.65024250       0.00000000
