10
Lattice="16.290000149 0.0 0.0 0.0 16.290000149 0.0 0.0 0.0 29.1751946751" Properties=species:S:1:pos:R:3:initial_magmoms:R:1 pbc="T T T"
Si      -1.36117612       1.36915822       1.26465716       0.00000000
Si       1.33894027       1.44471124      -1.25675069       0.00000000
Si      -1.41894046      -1.30904812      -1.31620973       0.00000000
Si       1.29943702      -1.30328146       1.45817623       0.00000000
Si      -2.77674456       0.04030146       2.50083934       0.00000000
Si       2.68249061       0.07872957      -2.60718292       0.00000000
Si      -0.04044807      -2.65983122      -2.63501606       0.00000000
Si       2.68170869      -2.65043189       0.12457808       0.00000000
Si      -0.04944015       2.78682807      -2.60266077       0.00000000
Si      -2.78251122       0.08509896      -2.61797774       0.00000000
