10
Lattice="16.290000149 0.0 0.0 0.0 16.290000149 0.0 0.0 0.0 29.1751946751" Properties=species:S:1:pos:R:3:initial_magmoms:R:1 pbc="T T T"
H        0.45154251       1.28431990      -0.66271455       0.00000000
Si      -0.81288730       0.98518663       1.94376817       0.00000000
Si      -1.87810670      -0.70835437      -1.27387653       0.00000000
Si       2.00862218      -1.36930483      -0.08061106       0.00000000
H        0.97300171      -0.25627428      -2.47872454       0.00000000
H       -0.65821375      -2.66947490      -1.05252432       0.00000000
Si       3.16882042       0.68905072      -0.67213814       0.00000000
Si      -2.31614480       2.29591262       0.64946901       0.00000000
Si       0.78353272      -2.95973013      -1.49420760       0.00000000
Si       2.00660222       0.85120138      -2.69214109       0.00000000
