10
Lattice="16.290000149 0.0 0.0 0.0 16.290000149 0.0 0.0 0.0 29.1751946751" Properties=species:S:1:pos:R:3:initial_magmoms:R:1 pbc="T T T"
Si      -1.35532801      -1.31473333       1.39929485       0.00000000
Si       1.34377840       1.36927225       1.36338019       0.00000000
Si      -1.37350765       1.35128809      -1.36161217       0.00000000
Si       1.42708546      -1.37569051      -1.29289000       0.00000000
Si      -2.67551849      -2.65574243       0.00513483       0.00000000
Si      -2.54760941      -0.11595222      -2.81153182       0.00000000
Si       2.68535765      -0.00632052      -2.71755852       0.00000000
Si       2.71080263       2.71956665       0.01307632       0.00000000
Si      -0.00270414      -2.68216481       2.75524120       0.00000000
Si       2.80256421      -2.64023435       0.12372908       0.00000000
