10
Lattice="16.290000149 0.0 0.0 0.0 16.290000149 0.0 0.0 0.0 29.1751946751" Properties=species:S:1:pos:R:3:initial_magmoms:R:1 pbc="T T T"
Si       1.13101471      -0.06359616      -1.00526051       0.00000000
H        0.67355893       0.91906552       1.62059454       0.00000000
H       -0.92545120       1.76389751       0.45233222       0.00000000
Si      -2.28271772       1.18890937       0.17712261       0.00000000
Si      -2.73582408      -1.01955853       0.78778861       0.00000000
Si       0.13813920       0.66292156       3.00659134       0.00000000
Si       1.36036162      -2.20113740      -1.91523483       0.00000000
Si       3.19279116       0.62946190      -0.10065442       0.00000000
Si       0.90565885       1.45270963      -2.84046778       0.00000000
Si      -1.65983699      -0.93253735       2.88781912       0.00000000
