10
Lattice="16.290000149 0.0 0.0 0.0 16.290000149 0.0 0.0 0.0 29.1751946751" Properties=species:S:1:pos:R:3:initial_magmoms:R:1 pbc="T T T"
Si       1.03360051       1.10747566      -0.21341655       0.00000000
H       -0.52145919       1.54059418       1.81600999       0.00000000
Si      -2.21273588      -0.77703301      -1.12216551       0.00000000
Si      -0.97300171       0.25627428       2.47872454       0.00000000
Si       1.03562047      -1.11303055       2.39811348       0.00000000
Si      -0.54467244      -2.45995292      -1.37855712       0.00000000
Si      -0.18946899      -2.70345584       0.98451694       0.00000000
Si       2.19581872       0.94532500       1.80658640       0.00000000
Si       2.51989361       0.03108132      -1.64110470       0.00000000
Si      -0.22460652       2.75172312      -1.36779148       0.00000000
