10
Lattice="16.290000149 0.0 0.0 0.0 16.290000149 0.0 0.0 0.0 29.1751946751" Properties=species:S:1:pos:R:3:initial_magmoms:R:1 pbc="T T T"
Si       1.38227167      -1.34715043      -1.33359815       0.00000000
Si      -1.29943702       1.30328146      -1.45817623       0.00000000
Si       1.38675142       1.35624025       1.33380237       0.00000000
Si      -1.34954506      -1.38958588       1.34372194       0.00000000
Si      -2.78057271       0.04968450       2.46862992       0.00000000
Si      -2.66061314       2.67243968      -0.19351907       0.00000000
Si       2.71127504      -0.01702305       2.66830495       0.00000000
Si       0.01674612      -2.68685633      -2.70614518       0.00000000
Si      -2.70596450      -2.69478956      -0.05161092       0.00000000
Si       2.72634329       0.02467935      -2.69616727       0.00000000
