10
Lattice="16.290000149 0.0 0.0 0.0 16.290000149 0.0 0.0 0.0 29.1751946751" Properties=species:S:1:pos:R:3:initial_magmoms:R:1 pbc="T T T"
Si      -1.29902106      -1.29015009       1.47238455       0.00000000
Si      -1.44980130       1.38505726      -1.22607880       0.00000000
Si       1.36216387       1.39535254       1.31804777       0.00000000
Si       1.43207240      -1.30691902      -1.35232571       0.00000000
Si      -2.62369129      -2.62646930       0.13497904       0.00000000
Si      -0.12752570       2.71026506      -2.59117858       0.00000000
Si       0.08630906      -2.52083126      -2.83454521       0.00000000
Si       2.71103941      -2.68024259       0.03480601       0.00000000
Si       2.65599550       0.04212594       2.74990797       0.00000000
Si       0.01147150       2.72189612       2.72440885       0.00000000
