10
Lattice="16.290000149 0.0 0.0 0.0 16.290000149 0.0 0.0 0.0 29.1751946751" Properties=species:S:1:pos:R:3:initial_magmoms:R:1 pbc="T T T"
Si       1.38018655       1.31696506      -1.36405705       0.00000000
Si      -1.37310040      -1.32703228      -1.36396953       0.00000000
Si       1.35619138      -1.37073835       1.33820783       0.00000000
Si      -1.36881613       1.38070783       1.32192807       0.00000000
Si      -0.05320314       2.63663426      -2.64668614       0.00000000
Si       0.04579119      -2.65787642      -2.66614599       0.00000000
Si       2.72624555      -0.00894321       2.66594176       0.00000000
Si      -2.73051353       0.01847286       2.66381197       0.00000000
Si      -0.01581759       2.73598697       2.68298008       0.00000000
Si      -0.00037467      -2.72624556       2.69526283       0.00000000
