10
Lattice="16.290000149 0.0 0.0 0.0 16.290000149 0.0 0.0 0.0 29.1751946751" Properties=species:S:1:pos:R:3:initial_magmoms:R:1 pbc="T T T"
Si       1.37109673      -1.34583094      -1.33823700       0.00000000
Si       1.37834578       1.33595920       1.34392617       0.00000000
Si      -1.34991973      -1.36492282       1.35623810       0.00000000
Si      -1.34587981       1.35922132      -1.36892931       0.00000000
Si      -0.00001629       2.70523145       2.65246282       0.00000000
Si      -0.01470987      -2.69604389      -2.66302424       0.00000000
Si      -2.72365544      -0.00768888       2.68543079       0.00000000
Si       2.74165590       0.01273878      -2.67597803       0.00000000
Si      -2.69267186       0.00224802      -2.73141090       0.00000000
Si       2.73491184       2.69146640      -0.01312884       0.00000000
