10
Lattice="16.290000149 0.0 0.0 0.0 16.290000149 0.0 0.0 0.0 29.1751946751" Properties=species:S:1:pos:R:3:initial_magmoms:R:1 pbc="T T T"
Si      -1.39463578       1.28620954      -1.35860129       0.00000000
Si       1.42631983      -1.35115777      -1.26176882       0.00000000
Si       0.88065370       1.89216497       1.06533223       0.00000000
Si      -1.33112107      -1.35948196       1.36811240       0.00000000
Si      -2.41083857       0.12629637       2.82401297       0.00000000
Si       0.05268186      -2.70910847      -2.59367481       0.00000000
Si      -2.57831606       2.73917981       0.05015216       0.00000000
Si      -0.01024641       2.62184294      -2.70147715       0.00000000
Si       2.78578551      -0.02406033      -2.61958238       0.00000000
Si      -2.74422972      -0.05372442      -2.67443175       0.00000000
