10
Lattice="16.290000149 0.0 0.0 0.0 16.290000149 0.0 0.0 0.0 29.1751946751" Properties=species:S:1:pos:R:3:initial_magmoms:R:1 pbc="T T T"
Si      -1.25543773       1.10653084      -1.60075541       0.00000000
Si      -1.89700310      -0.01626557       1.33718670       0.00000000
Si       1.57288096       1.68884948       0.44002029       0.00000000
Si       0.43419366      -2.28955952       0.29910410       0.00000000
H        1.83326033       0.58347197      -2.38095846       0.00000000
H       -2.07583472       1.37161801       1.94688992       0.00000000
Si      -1.06262929      -1.25978716       3.05031037       0.00000000
Si       2.04592628      -2.46053936      -1.38097866       0.00000000
Si       0.84183463       2.32321466       2.61895570       0.00000000
Si      -2.58667283       2.65204460      -0.43803637       0.00000000
