10
Lattice="16.290000149 0.0 0.0 0.0 16.290000149 0.0 0.0 0.0 29.1751946751" Properties=species:S:1:pos:R:3:initial_magmoms:R:1 pbc="T T T"
Si      -1.82684207      -1.29704239       0.63566914       0.00000000
Si       1.82495243      -1.45326349      -0.16880768       0.00000000
Si      -1.02754063       0.83162080      -1.95316258       0.00000000
Si       0.65135566       1.77380183       1.58470905       0.00000000
H       -0.00615762      -1.14207562       3.12399232       0.00000000
Si      -2.55534716       2.09313470      -0.73743222       0.00000000
Si       3.44497665       0.23402214      -0.09948741       0.00000000
Si      -3.47618829       0.36002529       0.53979945       0.00000000
Si      -1.36342414      -1.71706376       2.84878271       0.00000000
Si       2.88100056       1.26275194       1.91281329       0.00000000
