10
Lattice="16.290000149 0.0 0.0 0.0 16.290000149 0.0 0.0 0.0 29.1751946751" Properties=species:S:1:pos:R:3:initial_magmoms:R:1 pbc="T T T"
Si       1.54041499      -1.27021276      -1.19615381       0.00000000
Si       1.39530367       1.32144481       1.36465223       0.00000000
Si      -1.21694446      -1.43461144       1.44238370       0.00000000
Si      -1.47139426       1.21109635      -1.45333315       0.00000000
H        0.36108414      -1.81037288      -2.24613989       0.00000000
Si      -2.67138083       2.68289786      -0.02494479       0.00000000
Si       2.85467250       2.49958649      -0.05274875       0.00000000
Si      -2.64880289      -0.06307488       2.72655323       0.00000000
Si      -0.14009400       2.54093051      -2.85423847       0.00000000
Si       0.06463872       2.76133422       2.67877593       0.00000000
