10
Lattice="16.290000149 0.0 0.0 0.0 16.290000149 0.0 0.0 0.0 29.1751946751" Properties=species:S:1:pos:R:3:initial_magmoms:R:1 pbc="T T T"
Si      -1.34671223      -1.34780203       1.36843333       0.00000000
Si       1.35148357      -1.36927225      -1.35900974       0.00000000
Si      -1.36585298       1.34778574      -1.37213858       0.00000000
Si       1.33074640       1.34550514       1.41499694       0.00000000
Si      -2.64719084       2.69294879       0.08449136       0.00000000
Si       0.04603554       2.73816984      -2.62888927       0.00000000
Si       2.70466130       0.02829573      -2.67944404       0.00000000
Si      -2.71107956      -2.67753845      -0.01088235       0.00000000
Si       2.71788878       2.70457985       0.11031141       0.00000000
Si       0.00439830      -2.70681158       2.72843503       0.00000000
