10
Lattice="16.290000149 0.0 0.0 0.0 16.290000149 0.0 0.0 0.0 29.1751946751" Properties=species:S:1:pos:R:3:initial_magmoms:R:1 pbc="T T T"
Si       1.41687163      -1.34328807       1.25416285       0.00000000
Si      -1.49845195       1.23571217       1.27919808       0.00000000
Si      -1.03884589      -1.85489182      -0.95095672       0.00000000
Si       0.86561803       1.72811000      -1.38231139       0.00000000
H       -2.05205132       0.77651336      -2.05437717       0.00000000
Si      -1.87321970      -0.61137022      -2.66408039       0.00000000
Si      -0.07876215       2.66468727       2.51495430       0.00000000
Si       2.64855854      -2.54438236      -0.34215501       0.00000000
Si      -0.83940742       3.39697165      -1.25531235       0.00000000
Si      -0.04386897      -2.78003351       2.46874079       0.00000000
