10
Lattice="16.290000149 0.0 0.0 0.0 16.290000149 0.0 0.0 0.0 29.1751946751" Properties=species:S:1:pos:R:3:initial_magmoms:R:1 pbc="T T T"
Si      -1.34793105      -1.35373159       1.35740511       0.00000000
Si      -1.36883112       1.35682669      -1.34036679       0.00000000
Si       1.33051802      -1.34947990      -1.39101493       0.00000000
Si       1.31419544       1.36635634       1.39442843       0.00000000
Si       0.03003941       2.69127092      -2.67495690       0.00000000
Si       2.68162855      -2.70848945      -0.03101323       0.00000000
Si      -2.69148139       0.01225008       2.70783734       0.00000000
Si       2.69075095       2.71466336       0.04478392       0.00000000
Si      -2.71865311      -2.70179426       0.00189639       0.00000000
Si       2.70313135       0.01741401       2.72493401       0.00000000
