10
Lattice="16.290000149 0.0 0.0 0.0 16.290000149 0.0 0.0 0.0 29.1751946751" Properties=species:S:1:pos:R:3:initial_magmoms:R:1 pbc="T T T"
Si      -1.36391284      -1.38367261       1.33762433       0.00000000
Si      -1.33081156       1.31320207      -1.44323853       0.00000000
Si       1.38570886      -1.35503479      -1.35072399       0.00000000
Si       1.41099094       1.35913987       1.32286168       0.00000000
Si      -2.70163136      -2.66849750      -0.11789696       0.00000000
H       -1.10879515       2.93672865       2.14746938       0.00000000
Si       2.70053993      -0.05825304       2.68157967       0.00000000
Si       0.07882731       2.42927885       2.94538178       0.00000000
Si       2.73000854       2.68576490      -0.11865552       0.00000000
Si       0.04637763      -2.68389155      -2.76055692       0.00000000
