10
Lattice="16.290000149 0.0 0.0 0.0 16.290000149 0.0 0.0 0.0 29.1751946751" Properties=species:S:1:pos:R:3:initial_magmoms:R:1 pbc="T T T"
Si      -1.35971817      -1.35044101       1.35390408       0.00000000
Si      -1.38893591       1.34894233      -1.33050558       0.00000000
Si       1.31844745      -1.36308205      -1.39031473       0.00000000
Si       1.37010304       1.36102951       1.35253285       0.00000000
Si      -0.01238040       2.69724935      -2.68015008       0.00000000
Si       0.01132155      -2.69195510       2.71113414       0.00000000
Si       2.68568345      -2.71974584      -0.06170554       0.00000000
Si       2.68716584      -0.01901043      -2.73275296       0.00000000
Si      -2.69738230       0.01311345       2.72703462       0.00000000
Si      -2.70313135      -0.01741401      -2.72493401       0.00000000
