10
Lattice="16.290000149 0.0 0.0 0.0 16.290000149 0.0 0.0 0.0 29.1751946751" Properties=species:S:1:pos:R:3:initial_magmoms:R:1 pbc="T T T"
Si       1.33125628       1.36031275       1.37816909       0.00000000
Si      -1.29539710      -1.31435866       1.46919570       0.00000000
Si      -1.38764737       1.36068742      -1.35623518       0.00000000
Si       1.40079340      -1.34930071      -1.36862005       0.00000000
Si      -0.10467954      -2.73505845      -2.53563776       0.00000000
Si       0.07172145       2.53882910      -2.77363616       0.00000000
Si      -2.68527620      -2.65942397       0.19386917       0.00000000
Si       2.67706604       2.68923467      -0.00326179       0.00000000
Si       2.70045848       0.01145187       2.74175934       0.00000000
Si       2.75929797      -2.68894145       0.01213396       0.00000000
