10
Lattice="16.290000149 0.0 0.0 0.0 16.290000149 0.0 0.0 0.0 29.1751946751" Properties=species:S:1:pos:R:3:initial_magmoms:R:1 pbc="T T T"
Si       1.90988849      -1.06749674       0.79779570       0.00000000
Si      -1.25866315      -1.33318502      -1.45557964       0.00000000
Si       1.14155434       1.45815538      -1.51425095       0.00000000
Si      -0.97173109       0.38694126       2.16477027       0.00000000
H       -1.85671793       1.94750698       0.66207269       0.00000000
H        2.80707654       1.23276694       0.33166361       0.00000000
Si       0.05572809       2.53257863       2.58232566       0.00000000
Si      -2.60635115      -2.62534041      -0.08609600       0.00000000
Si       2.67328676       0.12210821      -2.67740762       0.00000000
Si       3.65459637      -0.75448765      -0.69667447       0.00000000
