10
Lattice="16.290000149 0.0 0.0 0.0 16.290000149 0.0 0.0 0.0 29.1751946751" Properties=species:S:1:pos:R:3:initial_magmoms:R:1 pbc="T T T"
Si      -1.49641570      -1.86173525      -0.06351440       0.00000000
Si      -0.74917711       1.36607941      -1.82006534       0.00000000
Si       2.01070730      -0.88380093      -0.95837597       0.00000000
Si      -0.59956975       1.06056046       2.06735429       0.00000000
H        2.48775995       1.38236941       1.05477081       0.00000000
H        1.27047340      -0.78114135       2.78547254       0.00000000
Si      -2.47057400       2.31878378      -0.44710986       0.00000000
Si       0.84274687      -2.05421251      -2.64805737       0.00000000
Si      -0.57809953      -0.44356041      -3.59517171       0.00000000
Si       2.59260239      -2.62653446       0.55765467       0.00000000
