10
Lattice="16.290000149 0.0 0.0 0.0 16.290000149 0.0 0.0 0.0 29.1751946751" Properties=species:S:1:pos:R:3:initial_magmoms:R:1 pbc="T T T"
H        1.31390254      -0.45372537       0.60757343       0.00000000
Si      -1.26104149       0.24506676       1.93644520       0.00000000
Si       0.26551071       2.02743713      -1.20085101       0.00000000
Si      -0.97171480      -1.99552502      -0.87823171       0.00000000
H        1.88366159      -0.58415941      -1.72609204       0.00000000
Si       3.07128405      -1.09160920      -0.92817964       0.00000000
H       -0.89847496      -2.82405072       1.69519551       0.00000000
Si      -1.92814958       2.75560014      -0.73404790       0.00000000
Si      -3.32281794      -0.44799129       1.03183911       0.00000000
H        1.07702965       0.16697250      -3.38522701       0.00000000
