10
Lattice="16.290000149 0.0 0.0 0.0 16.290000149 0.0 0.0 0.0 29.1751946751" Properties=species:S:1:pos:R:3:initial_magmoms:R:1 pbc="T T T"
Si      -1.26222252       1.42688998       1.32830460       0.00000000
Si       1.63293405      -1.18363141       1.21431420       0.00000000
Si       0.68019710       1.76365316      -1.50727808       0.00000000
Si      -1.33292112      -1.97858342      -0.48509596       0.00000000
Si       0.29737558      -2.59029410       2.56715747       0.00000000
Si       0.16471308       0.85387294      -3.60062748       0.00000000
Si      -2.58449812       0.10168218       2.69340437       0.00000000
Si      -0.40292664      -2.79293844      -2.48120443       0.00000000
Si       0.24325043       2.81264772       2.49532231       0.00000000
Si      -2.40007903       2.93097828      -0.05309885       0.00000000
