10
Lattice="16.290000149 0.0 0.0 0.0 16.290000149 0.0 0.0 0.0 29.1751946751" Properties=species:S:1:pos:R:3:initial_magmoms:R:1 pbc="T T T"
Si      -1.34768800      -1.29215539       1.36948364       0.00000000
Si       1.25866315       1.33318502       1.45557964       0.00000000
Si       1.35897697      -1.37311669      -1.34573503       0.00000000
Si      -1.42949638       1.35858764      -1.29762513       0.00000000
Si       2.40021749       2.79134040      -0.05867132       0.00000000
Si       2.70730028       0.01124010      -2.64890345       0.00000000
Si      -0.04799034      -2.70036074      -2.70255663       0.00000000
Si      -0.12559590       2.70503597      -2.72586761       0.00000000
Si      -2.76035682      -2.68775228       0.06978707       0.00000000
Si      -2.77236255       0.01213605      -2.68721048       0.00000000
