10
Lattice="16.290000149 0.0 0.0 0.0 16.290000149 0.0 0.0 0.0 29.1751946751" Properties=species:S:1:pos:R:3:initial_magmoms:R:1 pbc="T T T"
Si      -1.35985663       1.35279003      -1.35299965       0.00000000
Si      -1.36013356      -1.36335898       1.34208813       0.00000000
Si       1.33167493       1.35485723       1.38354608       0.00000000
Si       1.35089713      -1.36089919      -1.36020593       0.00000000
Si       2.68320737       2.70555725       0.00948194       0.00000000
Si      -2.71349048       0.02072088       2.67994586       0.00000000
Si       0.02824686      -2.70547580       2.68799821       0.00000000
Si      -2.70656723      -0.03474657      -2.69266624       0.00000000
Si       2.66458790      -0.01140300       2.75507198       0.00000000
Si      -0.01018125       2.74056447      -2.68831914       0.00000000
