10
Lattice="16.290000149 0.0 0.0 0.0 16.290000149 0.0 0.0 0.0 29.1751946751" Properties=species:S:1:pos:R:3:initial_magmoms:R:1 pbc="T T T"
Si      -1.35544204      -1.34873056       1.34027927       0.00000000
Si      -1.37368684       1.34666662      -1.33727422       0.00000000
Si       1.30841281       1.31262378       1.44542667       0.00000000
Si       1.35335692      -1.38407986      -1.33785773       0.00000000
Si       0.04162095      -2.80174971       2.52946020       0.00000000
Si       2.67480173       2.67423158       0.06949531       0.00000000
Si      -0.00891063       2.69443118      -2.68712296       0.00000000
Si       2.71349048      -0.02072088      -2.67994586       0.00000000
Si      -2.72367173      -0.02347389      -2.68808574       0.00000000
Si      -2.72411156       2.69599502       0.03538951       0.00000000
