10
Lattice="16.290000149 0.0 0.0 0.0 16.290000149 0.0 0.0 0.0 29.1751946751" Properties=species:S:1:pos:R:3:initial_magmoms:R:1 pbc="T T T"
Si      -1.61173261       0.17097984       1.68008276       0.00000000
Si       0.83339641       1.92987632      -1.01926460       0.00000000
Si       1.76906144      -1.15714387       1.02994272       0.00000000
Si      -1.56283003      -0.77859685      -1.59281975       0.00000000
H       -0.21266595       3.04401133      -0.99997980       0.00000000
Si      -2.04592628       2.46053936       1.38097866       0.00000000
Si       1.10946304       1.19861821      -3.22779766       0.00000000
Si       0.61740730      -2.79645546       2.21168398       0.00000000
Si      -2.47829546      -2.61495227      -0.42353630       0.00000000
Si      -0.41431986      -0.65145340      -3.65162572       0.00000000
