10
Lattice="16.290000149 0.0 0.0 0.0 16.290000149 0.0 0.0 0.0 29.1751946751" Properties=species:S:1:pos:R:3:initial_magmoms:R:1 pbc="T T T"
Si       0.17883162      -1.38788358      -0.60970322       0.00000000
Si      -0.69546898       1.82979056       1.92029964       0.00000000
Si      -0.51083811       1.28042659      -2.38492629       0.00000000
Si      -2.53540820       0.94780108       0.73619811       0.00000000
Si      -2.45319257       0.25313031      -1.49219451       0.00000000
Si       1.21264390       2.62045829       0.79906482       0.00000000
Si       2.05205132      -0.77651336       2.05437717       0.00000000
Si       1.01320543      -2.63140517       1.10342045       0.00000000
Si       2.91766935       0.95159665       0.67206578       0.00000000
Si       2.07583472      -1.37161801      -1.94688992       0.00000000
