10
Lattice="16.290000149 0.0 0.0 0.0 16.290000149 0.0 0.0 0.0 29.1751946751" Properties=species:S:1:pos:R:3:initial_magmoms:R:1 pbc="T T T"
Si       1.35181589       1.35250984       1.36183974       0.00000000
Si       1.38735578      -1.36119241      -1.32382446       0.00000000
Si      -1.33760449      -1.35723394       1.38097866       0.00000000
Si      -1.34568433       1.38041461      -1.35463346       0.00000000
Si      -2.68977224       2.71107956       0.03218024       0.00000000
Si       0.05257874      -2.73849564      -2.66845083       0.00000000
Si      -2.70212006       0.03073923      -2.70897518       0.00000000
Si       2.71050941       2.70438437      -0.00072938       0.00000000
Si       2.69079851      -0.00619020       2.72548834       0.00000000
Si      -2.69689097      -2.72262917       0.05006463       0.00000000
