10
Lattice="16.290000149 0.0 0.0 0.0 16.290000149 0.0 0.0 0.0 29.1751946751" Properties=species:S:1:pos:R:3:initial_magmoms:R:1 pbc="T T T"
Si       1.41556843       1.32885676      -1.23618217       0.00000000
Si      -1.42581484      -1.39246921      -1.17616880       0.00000000
Si       1.29560887      -1.29389842       1.42596681       0.00000000
Si      -1.08739009       1.41727888       1.49712511       0.00000000
H        2.14202099      -0.35851032       2.23263177       0.00000000
Si      -0.53491473      -2.12214719       2.59064059       0.00000000
Si       1.03503403       2.39073671       2.17646952       0.00000000
Si      -2.13811139      -0.34525026       2.68128792       0.00000000
Si       2.64450233       2.46612683       0.39179369       0.00000000
Si       0.00814500      -2.70700706      -2.46638343       0.00000000
