10
Lattice="16.290000149 0.0 0.0 0.0 16.290000149 0.0 0.0 0.0 29.1751946751" Properties=species:S:1:pos:R:3:initial_magmoms:R:1 pbc="T T T"
Si       1.36945144      -1.34757397       1.34118370       0.00000000
Si       1.37989333       1.34350147      -1.33485268       0.00000000
Si      -1.35070165       1.37549503       1.34967368       0.00000000
Si      -1.38012139      -1.34460919      -1.35644233       0.00000000
Si      -0.05422941       2.68967939      -2.59665068       0.00000000
Si      -0.00674406      -2.68684004       2.68458471       0.00000000
Si      -2.72715779       0.02076975       2.68353441       0.00000000
Si       2.72448623      -2.70158249      -0.02392366       0.00000000
Si       2.72632700       0.01488906       2.69990169       0.00000000
Si      -0.04412961      -2.78619276      -2.64508150       0.00000000
