10
Lattice="16.290000149 0.0 0.0 0.0 16.290000149 0.0 0.0 0.0 29.1751946751" Properties=species:S:1:pos:R:3:initial_magmoms:R:1 pbc="T T T"
Si      -1.36945144       1.34757397      -1.34118370       0.00000000
Si      -1.37619550      -1.33926607       1.34340101       0.00000000
Si       1.35503479      -1.35400852      -1.36510736       0.00000000
Si       1.35687556       1.36246303       1.35871799       0.00000000
Si       0.01044189       2.69107544      -2.67603638       0.00000000
Si      -0.01262475      -2.73341316       2.64516903       0.00000000
Si       2.71808426      -2.69369813      -0.00131288       0.00000000
Si       2.71060715       0.01674612      -2.71128002       0.00000000
Si      -2.72919404      -2.69454521      -0.01765099       0.00000000
Si      -2.72701118       0.02901249       2.69870551       0.00000000
