10
Lattice="16.290000149 0.0 0.0 0.0 16.290000149 0.0 0.0 0.0 29.1751946751" Properties=species:S:1:pos:R:3:initial_magmoms:R:1 pbc="T T T"
Si       0.93876013      -1.04479174       1.82543358       0.00000000
Si      -0.76462003      -2.04810914      -0.87881521       0.00000000
Si      -1.29266038       1.50581503       1.30897428       0.00000000
Si       2.00140571       0.60540157      -1.13888290       0.00000000
H       -0.26171514       2.69218316      -1.43833710       0.00000000
Si      -0.13765050      -1.52897941      -3.05262979       0.00000000
Si       2.26999523      -2.59030550       0.66271455       0.00000000
Si      -1.00359433      -2.07208802       2.71816536       0.00000000
Si       2.01132632       0.72039268       2.87781203       0.00000000
Si       0.30688731       2.31640544       2.86550010       0.00000000
