10
Lattice="16.290000149 0.0 0.0 0.0 16.290000149 0.0 0.0 0.0 29.1751946751" Properties=species:S:1:pos:R:3:initial_magmoms:R:1 pbc="T T T"
H       -1.13101471       0.06359616       1.00526051       0.00000000
Si       0.22934691      -2.13754124      -0.90997432       0.00000000
Si       2.06177645       0.69305806       0.90460609       0.00000000
Si      -0.22535586       1.51630579      -1.83520727       0.00000000
H       -0.45745578       0.98266168       2.62585505       0.00000000
H       -2.05646591       1.82749367       1.45759273       0.00000000
Si       2.35110314      -1.54753372      -1.91007082       0.00000000
H        2.42434298      -2.37605942       0.66335640       0.00000000
Si       3.32281794       0.44799129      -1.03183911       0.00000000
Si       1.72351460       2.81285949       1.83818314       0.00000000
