10
Lattice="16.290000149 0.0 0.0 0.0 16.290000149 0.0 0.0 0.0 29.1751946751" Properties=species:S:1:pos:R:3:initial_magmoms:R:1 pbc="T T T"
H        0.92755261      -0.89422327       0.79493653       0.00000000
Si       1.33949413       1.31761666      -1.39051895       0.00000000
Si      -1.14930838       1.42996879       1.46001427       0.00000000
Si      -1.32030451      -1.46132704      -1.28134538       0.00000000
H       -1.12006783      -1.23927805       2.21095460       0.00000000
Si      -2.58009330       2.64556118       0.07512613       0.00000000
Si      -0.49936995      -2.54148437       2.65430086       0.00000000
Si      -2.66557671      -0.12551445      -2.66124456       0.00000000
Si      -0.01479132       2.67555107      -2.69508778       0.00000000
Si       2.76690540       2.62141940      -0.08994713       0.00000000
