10
Lattice="16.290000149 0.0 0.0 0.0 16.290000149 0.0 0.0 0.0 29.1751946751" Properties=species:S:1:pos:R:3:initial_magmoms:R:1 pbc="T T T"
H        0.84641212       0.93538810       0.80666496       0.00000000
Si       1.43102764      -1.43927038      -1.12490798       0.00000000
Si      -1.29560887       1.29389842      -1.42596681       0.00000000
Si      -1.83052361      -0.82824877       1.16467377       0.00000000
H        1.65304406       0.18425619       2.46579993       0.00000000
H        2.28362996       1.84235015       1.35973912       0.00000000
Si      -2.38299896       2.71117730       0.07115830       0.00000000
Si       2.78057271      -0.04968450      -2.46862992       0.00000000
Si       0.07460820      -2.74447407      -2.52024084       0.00000000
Si      -1.20233233      -1.22710942       3.31366026       0.00000000
