10
Lattice="16.290000149 0.0 0.0 0.0 16.290000149 0.0 0.0 0.0 29.1751946751" Properties=species:S:1:pos:R:3:initial_magmoms:R:1 pbc="T T T"
Si      -0.10976202       2.30783201       0.24308772       0.00000000
Si       1.60946830       0.07539012      -1.78467583       0.00000000
Si       0.29546802      -0.88878241       2.24053825       0.00000000
Si      -2.12242412      -0.97345783      -0.67934441       0.00000000
H        1.10698696      -2.74924704       0.05616225       0.00000000
H        2.54420480      -1.84228499       0.60923642       0.00000000
Si      -1.85446991       1.99482292       1.73755789       0.00000000
Si      -1.89819227      -0.16061940       2.70734137       0.00000000
Si       3.19003815      -1.01403622      -0.46636549       0.00000000
Si      -1.03503403      -2.39073671      -2.17646952       0.00000000
