10
Lattice="16.290000149 0.0 0.0 0.0 16.290000149 0.0 0.0 0.0 29.1751946751" Properties=species:S:1:pos:R:3:initial_magmoms:R:1 pbc="T T T"
Si      -0.84307267       1.84437011      -1.12750457       0.00000000
Si       1.71592346      -0.44193141      -1.52487072       0.00000000
Si       1.38051235       1.02739402       1.63106843       0.00000000
Si      -1.39400047      -1.73889236       0.91435060       0.00000000
H        1.10656342      -0.52753536      -2.92058286       0.00000000
H       -2.00094959      -1.17499771      -2.18994846       0.00000000
Si       2.19012536      -2.46995498      -0.45860489       0.00000000
Si       0.32283522      -3.37002636       0.81331690       0.00000000
Si       2.64362267       2.51242301       0.30476408       0.00000000
Si      -2.56411118       2.60314202       0.25134430       0.00000000
