10
Lattice="16.290000149 0.0 0.0 0.0 16.290000149 0.0 0.0 0.0 29.1751946751" Properties=species:S:1:pos:R:3:initial_magmoms:R:1 pbc="T T T"
Si      -1.19430136      -0.36696483      -0.89273178       0.00000000
H        1.40488219      -2.03079287       0.46228096       0.00000000
Si      -0.34028181       1.11956284      -2.52403362       0.00000000
Si       0.08188983       2.93234664      -1.03758662       0.00000000
Si      -1.96464244      -2.48207474       0.28617948       0.00000000
Si       2.00094959       1.17499771       2.18994846       0.00000000
Si      -1.44915841      -1.57229452       2.37952888       0.00000000
Si       0.60694912      -0.56389465       3.10429906       0.00000000
H        3.10751301       0.64746235      -0.73063440       0.00000000
Si      -0.65044342      -2.74962171      -1.62491247       0.00000000
