10
Lattice="16.290000149 0.0 0.0 0.0 16.290000149 0.0 0.0 0.0 29.1751946751" Properties=species:S:1:pos:R:3:initial_magmoms:R:1 pbc="T T T"
Si       1.34408791      -1.33066495      -1.38681370       0.00000000
Si      -1.36304947       1.33968961      -1.36379448       0.00000000
Si      -1.35221662      -1.39049812       1.32767558       0.00000000
Si       1.37072206       1.34806267       1.35550872       0.00000000
Si      -2.73070902      -0.03971502       2.64648191       0.00000000
Si       2.68977224      -2.71107956      -0.03218024       0.00000000
Si      -2.69827562      -0.06458985      -2.70232323       0.00000000
Si      -2.71808426       2.69369813       0.00131288       0.00000000
Si       0.02717172       2.71404434       2.70594096       0.00000000
Si      -0.00747711       2.71044425      -2.70996713       0.00000000
