10
Lattice="16.290000149 0.0 0.0 0.0 16.290000149 0.0 0.0 0.0 29.1751946751" Properties=species:S:1:pos:R:3:initial_magmoms:R:1 pbc="T T T"
Si       1.58056984      -1.08942634       1.31831035       0.00000000
Si      -1.22893390      -1.13727007      -1.62797586       0.00000000
Si      -1.60946830      -0.07539012       1.78467583       0.00000000
Si       1.29989314       1.58596183      -1.28082022       0.00000000
H        0.93473650      -1.91767511       2.39391225       0.00000000
H       -0.50248134      -2.82463716       1.84083808       0.00000000
Si      -1.71923033       2.23244189       2.02776356       0.00000000
Si      -2.64450233      -2.46612683      -0.39179369       0.00000000
Si       2.81843067      -2.45346950      -0.10065442       0.00000000
Si       0.13224222      -2.50642829      -2.89263303       0.00000000
