10
Lattice="16.290000149 0.0 0.0 0.0 16.290000149 0.0 0.0 0.0 29.1751946751" Properties=species:S:1:pos:R:3:initial_magmoms:R:1 pbc="T T T"
Si       1.30013749      -1.34931700       1.41890642       0.00000000
Si      -1.37782450       1.34897491       1.35051976       0.00000000
Si      -1.42894252      -1.40418172      -1.24193552       0.00000000
Si       1.42744384       1.39090537      -1.28099236       0.00000000
Si      -2.63192645      -0.00705357      -2.68304718       0.00000000
Si       2.71482626      -0.05786208      -2.60944108       0.00000000
Si       0.05196510       2.65544921      -2.69761144       0.00000000
Si      -0.11393226      -2.72757808      -2.64258119       0.00000000
Si       2.63026487      -2.76856209       0.13233868       0.00000000
Si      -0.03103245       2.70594821       2.71300135       0.00000000
