10
Lattice="16.290000149 0.0 0.0 0.0 16.290000149 0.0 0.0 0.0 29.1751946751" Properties=species:S:1:pos:R:3:initial_magmoms:R:1 pbc="T T T"
Si       1.07971750      -1.48577833      -1.45590056       0.00000000
Si      -1.33328764      -1.33278265       1.39334895       0.00000000
Si      -1.45632601       1.36474363      -1.27227189       0.00000000
Si       1.79792732       0.77700043       1.39040225       0.00000000
Si       2.11970369      -1.15566148       2.79022809       0.00000000
Si       2.41083857      -0.12629637      -2.82401297       0.00000000
Si       0.25914132      -2.63186129       2.61447672       0.00000000
Si      -2.72043002       0.14579550       2.60697870       0.00000000
Si      -0.16747749       2.61288344      -2.77386081       0.00000000
Si       2.32586993      -3.02075247      -0.19982091       0.00000000
