10
Lattice="16.290000149 0.0 0.0 0.0 16.290000149 0.0 0.0 0.0 29.1751946751" Properties=species:S:1:pos:R:3:initial_magmoms:R:1 pbc="T T T"
Si       1.33012738      -1.41924509      -1.28656773       0.00000000
Si      -1.34850250      -1.37399635       1.33709917       0.00000000
Si       1.38580660       1.35021295       1.32478724       0.00000000
Si      -1.30013749       1.34931700      -1.41890642       0.00000000
Si       2.66375711      -0.07913682      -2.61507189       0.00000000
Si       0.01470987       2.69604389       2.66302424       0.00000000
Si      -2.67796199       2.69829191      -0.06838666       0.00000000
Si      -2.70824510      -0.01633887       2.67626978       0.00000000
Si      -2.72908002      -0.05486472      -2.66084194       0.00000000
Si       0.03365514      -2.73342945       2.65975662       0.00000000
