10
Lattice="16.290000149 0.0 0.0 0.0 16.290000149 0.0 0.0 0.0 29.1751946751" Properties=species:S:1:pos:R:3:initial_magmoms:R:1 pbc="T T T"
Si       1.76629214       1.01053387       1.15560029       0.00000000
Si       1.34248986      -1.30215745      -1.42211569       0.00000000
Si      -1.23131224       1.48879198      -1.36087696       0.00000000
Si      -1.30460095      -1.29093364       1.49817542       0.00000000
H       -3.16014600      -0.79713487      -1.58179153       0.00000000
Si      -2.30516534       0.47302902       2.76607103       0.00000000
Si      -2.51431265       0.03111390      -2.65739343       0.00000000
Si       3.41563836      -0.64653382       1.25146998       0.00000000
Si       2.75962377      -2.52882704      -0.04484227       0.00000000
Si       2.68713326       2.74364328      -0.12163139       0.00000000
