10
Lattice="16.290000149 0.0 0.0 0.0 16.290000149 0.0 0.0 0.0 29.1751946751" Properties=species:S:1:pos:R:3:initial_magmoms:R:1 pbc="T T T"
Si       1.32467023       1.33631921       1.33740551       0.00000000
Si      -1.41687163       1.34328807      -1.25416285       0.00000000
Si       1.23168691      -1.20109429      -1.59631786       0.00000000
Si      -1.46074060      -1.43674543       1.21457794       0.00000000
Si      -2.45571752      -0.51160374      -2.20511956       0.00000000
Si      -0.71016256      -2.05371290      -2.65782085       0.00000000
Si       2.62369129       2.62646930      -0.13497904       0.00000000
Si       2.64150432      -0.09899433       2.61320760       0.00000000
Si       2.53242713      -2.73108369      -0.27839846       0.00000000
Si      -0.11844459       2.66802509       2.61968449       0.00000000
