10
Lattice="16.290000149 0.0 0.0 0.0 16.290000149 0.0 0.0 0.0 29.1751946751" Properties=species:S:1:pos:R:3:initial_magmoms:R:1 pbc="T T T"
Si       2.30229830       0.05701500      -0.43561483       0.00000000
Si      -0.85797802       2.07910901      -0.79245664       0.00000000
Si      -0.14081076       0.41664933       2.35726820       0.00000000
Si      -0.91737136      -2.08049692      -0.82049400       0.00000000
H       -2.30721788       0.20046474       0.91315442       0.00000000
H       -1.01193481       2.87510358       0.48311205       0.00000000
Si      -3.58744899       0.16159680       0.09143506       0.00000000
Si      -2.98504479      -1.35606432      -1.66817928       0.00000000
Si       3.06691833       2.10512414       0.44320038       0.00000000
Si       2.06332400       0.03303612       3.16136574       0.00000000
