10
Lattice="16.290000149 0.0 0.0 0.0 16.290000149 0.0 0.0 0.0 29.1751946751" Properties=species:S:1:pos:R:3:initial_magmoms:R:1 pbc="T T T"
Si       1.28954899      -1.41739291       1.35871799       0.00000000
Si      -1.33216363       1.07013898       1.62252010       0.00000000
Si       1.31901760       1.32662503      -1.44151719       0.00000000
Si      -1.41099094      -1.35913987      -1.32286168       0.00000000
H       -2.51978609       1.57758877       0.82460770       0.00000000
Si       2.71084499       0.02124216       2.52520062       0.00000000
Si      -2.02178450      -0.78687217       3.04413981       0.00000000
Si      -0.35372106      -2.46979208       2.78774820       0.00000000
H       -1.88920019       3.23568273      -0.28145310       0.00000000
Si       2.61343567       2.73066015      -0.12177726       0.00000000
