10
Lattice="16.290000149 0.0 0.0 0.0 16.290000149 0.0 0.0 0.0 29.1751946751" Properties=species:S:1:pos:R:3:initial_magmoms:R:1 pbc="T T T"
Si      -0.62819128       0.39886065      -2.14898649       0.00000000
Si       1.49594329      -1.79053166       0.11813036       0.00000000
Si       0.97171480       1.99552502       0.87823171       0.00000000
Si      -2.12175623      -0.59000752       1.00009650       0.00000000
H        0.07323984      -0.82852570       2.57342722       0.00000000
H        0.72679465      -1.24781401       2.61465177       0.00000000
H        2.28561734       1.54179964       1.48580514       0.00000000
H        2.85537639       1.41136561      -0.84786033       0.00000000
Si      -2.35110314       1.54753372       1.91007082       0.00000000
Si      -0.16827570      -3.29517381       0.90087166       0.00000000
