10
Lattice="16.290000149 0.0 0.0 0.0 16.290000149 0.0 0.0 0.0 29.1751946751" Properties=species:S:1:pos:R:3:initial_magmoms:R:1 pbc="T T T"
Si      -1.40589217       1.36708939       1.27419745       0.00000000
Si       1.34211682       1.35169534      -1.36846251       0.00000000
Si      -1.40134726      -1.36982611      -1.30882841       0.00000000
Si       1.35436690      -1.30691413       1.42862176       0.00000000
Si       2.58561398      -2.73739117       0.01169925       0.00000000
Si      -2.77925322      -0.07775217       2.55428829       0.00000000
Si       2.68144805       2.68055210       0.04137043       0.00000000
Si      -0.06817365       2.65191428       2.72971874       0.00000000
Si       2.66364308      -0.02026476      -2.74100954       0.00000000
Si      -0.02101410       2.67462254      -2.75895228       0.00000000
