10
Lattice="16.290000149 0.0 0.0 0.0 16.290000149 0.0 0.0 0.0 29.1751946751" Properties=species:S:1:pos:R:3:initial_magmoms:R:1 pbc="T T T"
Si      -1.34607529       1.34486983      -1.36551581       0.00000000
Si      -1.35557236      -1.37075464       1.34617266       0.00000000
Si       1.35729910       1.34817670       1.36770395       0.00000000
Si       1.34387614      -1.30297195      -1.42404125       0.00000000
Si      -2.76848553      -0.11484450      -2.59009793       0.00000000
Si       0.11466531       2.78161527      -2.58009375       0.00000000
Si      -2.70016526       2.67432932       0.03524364       0.00000000
Si       2.69228090      -2.68786631      -0.06225987       0.00000000
Si       0.00747711      -2.71044425       2.70996713       0.00000000
Si      -2.71060715      -0.01674612       2.71128002       0.00000000
