10
Lattice="16.290000149 0.0 0.0 0.0 16.290000149 0.0 0.0 0.0 29.1751946751" Properties=species:S:1:pos:R:3:initial_magmoms:R:1 pbc="T T T"
Si       1.34610787       1.33006711      -1.34658695       0.00000000
Si      -1.35604477       1.39539001       1.28907680       0.00000000
Si       1.37085238      -1.36056851       1.31317551       0.00000000
Si      -1.30100086      -1.32697853      -1.42602517       0.00000000
Si      -2.68003897       0.01162454       2.65138334       0.00000000
Si      -0.01629000      -2.71964322       2.61786104       0.00000000
Si       0.03696201       2.73863084       2.61803609       0.00000000
Si       2.72668539       0.01093548       2.65135417       0.00000000
Si      -2.57996787       0.04634505      -2.81315688       0.00000000
Si      -2.64987641       2.74861661      -0.14278340       0.00000000
