10
Lattice="16.290000149 0.0 0.0 0.0 16.290000149 0.0 0.0 0.0 29.1751946751" Properties=species:S:1:pos:R:3:initial_magmoms:R:1 pbc="T T T"
Si       1.36723600      -1.35666379       1.32860919       0.00000000
Si       1.36871839       1.34407162      -1.34243823       0.00000000
Si      -1.33995025      -1.36282141      -1.36563251       0.00000000
Si      -1.31844745       1.36308205       1.39031473       0.00000000
Si      -0.01360215       2.68949531      -2.67907060       0.00000000
Si      -0.00856854      -2.68726358       2.68417626       0.00000000
Si       2.71643897       0.00346977       2.67851627       0.00000000
Si      -2.69864378      -2.71469594      -0.00306340       0.00000000
Si      -2.69106078      -0.00381186      -2.72563421       0.00000000
Si       2.71811684      -0.02047653      -2.69943489       0.00000000
