10
Lattice="16.290000149 0.0 0.0 0.0 16.290000149 0.0 0.0 0.0 29.1751946751" Properties=species:S:1:pos:R:3:initial_magmoms:R:1 pbc="T T T"
Si      -1.31683409       1.43531354      -1.27580209       0.00000000
Si       1.31418827       1.38382411       1.36402788       0.00000000
Si      -1.39887053      -1.33444423       1.33459011       0.00000000
Si       1.28133785      -1.34516305      -1.45662994       0.00000000
Si      -2.64150432       0.09899433      -2.61320760       0.00000000
Si       2.64719084      -2.69294879      -0.08449136       0.00000000
Si      -0.03003941      -2.69127092       2.67495690       0.00000000
Si       2.66071154       0.02339244       2.71974082       0.00000000
Si       2.69322638       0.04522104      -2.71338063       0.00000000
Si       2.63818247       2.76758958       0.00172134       0.00000000
