10
Lattice="16.290000149 0.0 0.0 0.0 16.290000149 0.0 0.0 0.0 29.1751946751" Properties=species:S:1:pos:R:3:initial_magmoms:R:1 pbc="T T T"
Si       1.37645614       1.35472528      -1.33386073       0.00000000
Si       1.36959805      -1.33933123       1.35635480       0.00000000
Si      -1.31851261       1.36930483       1.38433381       0.00000000
Si      -1.36635634      -1.36184401      -1.35337893       0.00000000
Si      -0.01863576      -2.70244586       2.66757557       0.00000000
Si      -0.00570150       2.71415837      -2.65651818       0.00000000
Si       2.72715779      -0.02076975      -2.68353441       0.00000000
Si      -2.68341914       0.01819593       2.73190688       0.00000000
Si      -2.70850574       2.71695048       0.04971453       0.00000000
Si       2.72041373      -2.70760979       0.00105031       0.00000000
