10
Lattice="16.290000149 0.0 0.0 0.0 16.290000149 0.0 0.0 0.0 29.1751946751" Properties=species:S:1:pos:R:3:initial_magmoms:R:1 pbc="T T T"
Si      -1.32877531      -1.04946697       1.62374546       0.00000000
Si       1.23124708      -1.43047704      -1.41692250       0.00000000
Si      -1.35436690       1.30691413      -1.42862176       0.00000000
Si       1.42674337       1.27148338       1.40119707       0.00000000
Si      -0.06020784       2.56103237       2.66468723       0.00000000
Si       0.09207108      -2.66011907       2.57085980       0.00000000
Si       2.72159574       2.63124227      -0.03970744       0.00000000
Si      -1.49985289       0.76017286       3.39885183       0.00000000
H       -2.84682414       1.32771646       2.13880435       0.00000000
Si       2.61557129      -0.09265752      -2.79445850       0.00000000
