10
Lattice="16.290000149 0.0 0.0 0.0 16.290000149 0.0 0.0 0.0 29.1751946751" Properties=species:S:1:pos:R:3:initial_magmoms:R:1 pbc="T T T"
Si      -0.38375982      -0.61884082      -2.21118800       0.00000000
Si      -2.00140571      -0.60540157       1.13888290       0.00000000
Si       0.77343292       2.04735980       0.97229254       0.00000000
Si       1.48724443      -1.87706414       0.30327615       0.00000000
H       -2.26312085       2.08678160      -0.29945420       0.00000000
Si       1.80027308       0.70222933       2.57949566       0.00000000
H        2.74958913       1.94688308      -0.10415544       0.00000000
Si      -1.06264558      -1.65019331       2.96431648       0.00000000
Si      -2.13905621      -2.13438098      -1.91374689       0.00000000
H       -0.45851463       3.28833201      -1.40954118       0.00000000
