10
Lattice="16.290000149 0.0 0.0 0.0 16.290000149 0.0 0.0 0.0 29.1751946751" Properties=species:S:1:pos:R:3:initial_magmoms:R:1 pbc="T T T"
H        1.97615621      -0.10047672      -1.07644798       0.00000000
Si       1.02684016      -1.34513047       1.60720312       0.00000000
Si       0.75626326       1.86064382      -1.29780018       0.00000000
Si      -0.77343292      -2.04735980      -0.97229254       0.00000000
Si      -1.07841430       1.10431540       1.85822650       0.00000000
H       -1.23194755       1.24097221      -2.38183372       0.00000000
H       -3.03655377       0.03942180      -1.27174674       0.00000000
H       -1.88550236       1.66026053      -2.42305827       0.00000000
H        2.32266080      -0.79711858       2.52794309       0.00000000
Si      -1.02227896       3.40889430      -0.66618640       0.00000000
