10
Lattice="16.290000149 0.0 0.0 0.0 16.290000149 0.0 0.0 0.0 29.1751946751" Properties=species:S:1:pos:R:3:initial_magmoms:R:1 pbc="T T T"
Si      -1.41556843      -1.32885676       1.23618217       0.00000000
Si       1.36117612      -1.36915822      -1.26465716       0.00000000
Si       1.22893390       1.13727007       1.62797586       0.00000000
Si      -1.39706299       1.45301914      -1.18918094       0.00000000
Si      -0.38053440       1.06187995       3.41265170       0.00000000
Si       2.70011639       0.07555302      -2.52140785       0.00000000
Si      -2.50295852       0.08842212       2.73330729       0.00000000
Si      -0.05776434      -2.67820634      -2.58086690       0.00000000
Si       2.52882704       2.72323190       0.34715564       0.00000000
Si      -0.11995956      -2.62275518       2.66214899       0.00000000
