10
Lattice="16.290000149 0.0 0.0 0.0 16.290000149 0.0 0.0 0.0 29.1751946751" Properties=species:S:1:pos:R:3:initial_magmoms:R:1 pbc="T T T"
Si      -1.24022287       1.37287234      -1.36878343       0.00000000
Si       1.53173242      -1.33604717      -1.16315666       0.00000000
Si       1.57022569       1.21907845       1.30451048       0.00000000
Si      -1.14155434      -1.45815538       1.51425095       0.00000000
H        1.66552220      -0.22538844       1.84591457       0.00000000
Si       2.51304203      -2.21264303       0.81757648       0.00000000
Si       0.76833415      -2.52565212       2.31204665       0.00000000
Si       0.08723295       2.47002014       2.54751965       0.00000000
Si      -2.52581339      -0.08630442      -2.66719630       0.00000000
Si      -2.40021749      -2.79134040       0.05867132       0.00000000
