10
Lattice="16.290000149 0.0 0.0 0.0 16.290000149 0.0 0.0 0.0 29.1751946751" Properties=species:S:1:pos:R:3:initial_magmoms:R:1 pbc="T T T"
Si       2.06767343      -0.72443260       0.84768528       0.00000000
Si       0.76181815       0.58704599      -2.15365452       0.00000000
Si      -1.28772777      -1.98734418      -0.11524202       0.00000000
Si      -0.60240421       1.51766112       1.75961434       0.00000000
H        0.67782691       1.55652906       2.58133370       0.00000000
H        0.14112027       1.88925232      -2.59700078       0.00000000
Si      -0.08221563       3.51233906       0.06409790       0.00000000
Si       1.28453167      -2.22309306       2.55638891       0.00000000
Si       3.11800377      -1.39635926      -1.22331591       0.00000000
Si      -1.96405437       0.13307464       3.09461290       0.00000000
