10
Lattice="10.86 0.0 0.0 0.0 10.86 0.0 0.0 0.0 10.86" Properties=species:S:1:pos:R:3:initial_magmoms:R:1 pbc="T T T"
Si       0.85021854      -0.99317958      -1.69888410       0.00000000
Si       0.85021854       1.72182042       1.01611590       0.00000000
Si      -1.86478146      -0.99317958       1.01611590       0.00000000
Si       2.20771854      -2.35067958      -0.34138410       0.00000000
Si       2.20771854       0.36432042       2.37361590       0.00000000
Si      -0.50728146      -2.35067958       2.37361590       0.00000000
Si      -0.61139628      -1.96846188      -3.06708120       0.00000000
Si       2.20771854       0.36432042      -3.05638410       0.00000000
Si       2.20771854       3.07932042      -0.34138410       0.00000000
Si       3.56521854      -0.99317958       1.01611590       0.00000000
