10
Lattice="16.28999089631971 0.0 0.0 0.0 16.28999089631971 0.0 0.0 0.0 34.433804113860816" Properties=species:S:1:pos:R:3:initial_magmoms:R:1 pbc="T T T"
Si       1.35599589      -1.34793234       1.36023932       0.00000000
Si      -1.32926400      -1.35829278      -1.37916071       0.00000000
Si      -1.35780408       1.36827855       1.35710585       0.00000000
Si       1.37098269       1.35866745      -1.37961868       0.00000000
Si      -2.61653238       0.04323366      -2.72158397       0.00000000
Si      -0.10526598       2.65323375      -2.69638530       0.00000000
Si       2.70822879      -2.70518908       0.00292687       0.00000000
Si      -0.00187335      -2.70628865       2.71517584       0.00000000
Si      -2.71440270      -2.71017219      -0.00316791       0.00000000
Si       2.71326240       0.00807984       2.71617442       0.00000000
