10
Lattice="16.28999089631971 0.0 0.0 0.0 16.28999089631971 0.0 0.0 0.0 34.433804113860816" Properties=species:S:1:pos:R:3:initial_magmoms:R:1 pbc="T T T"
Si       1.35338949      -1.35070102      -1.35538415       0.00000000
Si      -1.35850455      -1.35565318       1.35720915       0.00000000
Si      -1.35527913       1.35531463      -1.36202988       0.00000000
Si       1.35725022       1.35919816       1.35631387       0.00000000
Si      -0.00475668      -2.70079993      -2.71500023       0.00000000
Si       2.70210375       0.01457354      -2.72076789       0.00000000
Si       2.71412577      -2.71259389      -0.00037877       0.00000000
Si      -0.00074934      -2.71337581       2.71462490       0.00000000
Si       2.71432125       0.00214007       2.71465933       0.00000000
Si      -2.71524978       0.00252674       2.71441830       0.00000000
