10
Lattice="16.28999089631971 0.0 0.0 0.0 16.28999089631971 0.0 0.0 0.0 34.433804113860816" Properties=species:S:1:pos:R:3:initial_magmoms:R:1 pbc="T T T"
Si       0.83354301       1.85271057      -1.36258082       0.00000000
Si      -1.80978642      -0.85646304      -1.41127025       0.00000000
Si       1.72369377      -1.92827825      -0.22640239       0.00000000
Si      -1.17046908      -0.56744586       2.95194281       0.00000000
Si      -0.50388228      -2.18447434      -2.86892286       0.00000000
Si       2.21555403       0.56332449      -2.85952243       0.00000000
Si       3.49637157      -0.90885168      -1.56219370       0.00000000
Si       2.32189515       3.29606973      -0.18432426       0.00000000
Si      -3.60735534      -1.84963176      -0.15505551       0.00000000
Si       3.01920489      -2.10925363       1.76242638       0.00000000
