10
Lattice="16.28999089631971 0.0 0.0 0.0 16.28999089631971 0.0 0.0 0.0 34.433804113860816" Properties=species:S:1:pos:R:3:initial_magmoms:R:1 pbc="T T T"
Si      -2.37498426       0.33655140       0.24874994       0.00000000
Si      -0.49783869      -2.41109756       0.48245230       0.00000000
Si       1.25043669       0.81195876       2.02884087       0.00000000
Si       1.17046908       0.56744586      -2.95194281       0.00000000
Si      -1.88470413      -3.06392813      -1.40348821       0.00000000
Si       2.12920074       2.98100484       1.24343980       0.00000000
Si       2.67173919      -1.13153598       2.63077854       0.00000000
Si      -3.39094269      -1.41545439       1.49136332       0.00000000
Si      -1.64367729      -2.63799608       2.54655341       0.00000000
Si      -3.00574935       2.40430626       1.32074373       0.00000000
