10
Lattice="16.28999089631971 0.0 0.0 0.0 16.28999089631971 0.0 0.0 0.0 34.433804113860816" Properties=species:S:1:pos:R:3:initial_magmoms:R:1 pbc="T T T"
Si      -1.62986337       1.27470879      -1.13538646       0.00000000
Si       0.36924543      -2.36614531      -0.20684398       0.00000000
Si       2.19528927       0.71307846      -0.70410282       0.00000000
Si      -0.89692740      -0.07452675       2.27266678       0.00000000
Si       2.39151861      -2.20750677       1.08686920       0.00000000
Si       3.18533031       0.05751999       1.32728616       0.00000000
Si      -3.45956269      -0.08179209      -0.53730538       0.00000000
Si      -3.13858615      -0.77866200       1.74934153       0.00000000
Si      -1.03498515       1.39230630      -3.46576432       0.00000000
Si      -1.33450938       2.07353781       3.09649600       0.00000000
