10
Lattice="16.28999089631971 0.0 0.0 0.0 16.28999089631971 0.0 0.0 0.0 34.433804113860816" Properties=species:S:1:pos:R:3:initial_magmoms:R:1 pbc="T T T"
Si       1.48835214       1.44335916       1.17825657       0.00000000
Si       1.38201102      -1.28938608      -1.49694160       0.00000000
Si      -1.33134912       1.40077710      -1.48020676       0.00000000
Si      -0.83354301      -1.85271057       1.36258082       0.00000000
Si      -2.64332943      -2.70917361      -0.04868943       0.00000000
Si       2.66282856      -2.76156225      -0.19961287       0.00000000
Si      -2.69351892       2.82701547      -0.06446012       0.00000000
Si       0.03134196      -2.66465304      -2.86231157       0.00000000
Si      -2.68931610       0.04768083      -2.86554835       0.00000000
Si       2.73989655       0.04908177      -2.86696013       0.00000000
