10
Lattice="16.28999089631971 0.0 0.0 0.0 16.28999089631971 0.0 0.0 0.0 34.433804113860816" Properties=species:S:1:pos:R:3:initial_magmoms:R:1 pbc="T T T"
Si      -1.35682668      -1.34620560       1.37780057       0.00000000
Si       1.35630540       1.37003787       1.37628549       0.00000000
Si      -1.47782880       1.30844538      -1.32946237       0.00000000
Si       1.23655761      -1.46978154      -1.49380468       0.00000000
Si       2.69808012      -2.71463076      -0.00558517       0.00000000
Si      -2.73013884      -2.69451261       0.01764045       0.00000000
Si       2.70842427       2.72608263       0.01183835       0.00000000
Si      -0.00125433      -2.70428661       2.73721349       0.00000000
Si       2.71327869       0.01190799       2.73742009       0.00000000
Si      -2.71883358       0.01115865       2.73735122       0.00000000
