10
Lattice="16.28999089631971 0.0 0.0 0.0 16.28999089631971 0.0 0.0 0.0 34.433804113860816" Properties=species:S:1:pos:R:3:initial_magmoms:R:1 pbc="T T T"
Si       1.35552348       1.33740900       1.35442001       0.00000000
Si      -1.35783666       1.35694071      -1.35786339       0.00000000
Si       1.35573525      -1.35878148      -1.35930961       0.00000000
Si      -1.36106208      -1.36490652       1.38551375       0.00000000
Si       2.71107954       2.71396287       0.00368442       0.00000000
Si       2.71018359      -2.71660185      -0.00123962       0.00000000
Si       2.71290402      -0.00107514      -2.71607112       0.00000000
Si      -0.00097740       2.71368594      -2.71607112       0.00000000
Si      -2.71713942      -0.00092853      -2.71555461       0.00000000
Si      -0.00135207      -2.71668330      -2.71617442       0.00000000
