10
Lattice="16.28999089631971 0.0 0.0 0.0 16.28999089631971 0.0 0.0 0.0 34.433804113860816" Properties=species:S:1:pos:R:3:initial_magmoms:R:1 pbc="T T T"
Si      -0.45128187      -1.25468838       1.98975848       0.00000000
Si      -1.25068104      -1.07380422      -1.87530045       0.00000000
Si      -0.22428072       2.37402315       0.74673189       0.00000000
Si       1.63214397       1.43904231      -1.74703446       0.00000000
Si       0.65414124      -0.39456009      -3.11123368       0.00000000
Si      -2.25362376       0.22719663       2.59014663       0.00000000
Si       3.06465399       1.68537969       0.31166054       0.00000000
Si      -0.17723520       3.17487213      -1.49215530       0.00000000
Si      -2.50532055       2.16332829       1.21217388       0.00000000
Si       1.70816940      -1.04174550       2.94612349       0.00000000
