10
Lattice="16.28999089631971 0.0 0.0 0.0 16.28999089631971 0.0 0.0 0.0 34.433804113860816" Properties=species:S:1:pos:R:3:initial_magmoms:R:1 pbc="T T T"
Si      -0.79648326      -1.63361007       1.58750742       0.00000000
Si      -0.25449867      -1.98783612      -1.39129863       0.00000000
Si       1.90193895       1.02791529       1.41142662       0.00000000
Si      -2.03357844       1.16369244      -1.26919630       0.00000000
Si      -2.06475750      -0.19681578       2.92287175       0.00000000
Si      -1.93056048      -3.06273177       0.01625276       0.00000000
Si       0.66538134       2.49769683       2.90523130       0.00000000
Si      -3.41518221       1.26024327       1.57759736       0.00000000
Si      -2.60042157       3.00482082       0.21199300       0.00000000
Si       2.27475189       0.70239222      -3.41473339       0.00000000
