10
Lattice="16.28999089631971 0.0 0.0 0.0 16.28999089631971 0.0 0.0 0.0 34.433804113860816" Properties=species:S:1:pos:R:3:initial_magmoms:R:1 pbc="T T T"
Si      -0.02594020       2.30646037      -0.26675883       0.00000000
Si      -1.92457132      -0.35425537      -1.29150941       0.00000000
Si       1.94483215      -0.73937590      -1.08549185       0.00000000
Si      -0.31276474      -1.01861274       2.13348526       0.00000000
Si      -0.85595316      -0.69133131      -3.36480435       0.00000000
Si      -2.30142418       2.69136049       0.50741682       0.00000000
Si       3.09257668      -1.65419967       0.76067759       0.00000000
Si       0.98452036      -2.11199754      -2.77078646       0.00000000
Si      -2.87809018      -2.26298955      -0.21273216       0.00000000
Si       2.21571856       3.01059562       0.25656642       0.00000000
