10
Lattice="16.28999089631971 0.0 0.0 0.0 16.28999089631971 0.0 0.0 0.0 34.433804113860816" Properties=species:S:1:pos:R:3:initial_magmoms:R:1 pbc="T T T"
Si      -1.35635427      -1.35778779      -1.36010159       0.00000000
Si       1.35871632       1.35772809      -1.36006715       0.00000000
Si      -1.36388025       1.36634004       1.34949597       0.00000000
Si       1.36563957      -1.36777356       1.35221624       0.00000000
Si      -0.00676035       2.70092014       2.71534801       0.00000000
Si       0.01619226      -2.69599500       2.72495505       0.00000000
Si      -2.71191033       2.71352045      -0.00437310       0.00000000
Si      -2.71319724      -2.71505430      -0.00172169       0.00000000
Si       2.71538010      -2.71309950      -0.00557828       0.00000000
Si       2.71614573       2.71397331      -0.00123962       0.00000000
