10
Lattice="16.28999089631971 0.0 0.0 0.0 16.28999089631971 0.0 0.0 0.0 34.433804113860816" Properties=species:S:1:pos:R:3:initial_magmoms:R:1 pbc="T T T"
Si       1.85513778      -0.79518006       1.18169995       0.00000000
Si       1.35426915       1.34926812      -1.36633411       0.00000000
Si      -1.35094599      -1.37977929      -1.35968838       0.00000000
Si      -1.42757415       1.31422833       1.41646976       0.00000000
Si       1.24556598      -0.90098361       3.39934148       0.00000000
Si       2.71138905       2.68384822      -0.00048207       0.00000000
Si       0.00623907       2.69644853      -2.72020318       0.00000000
Si      -2.72713008       2.69416305       0.00420093       0.00000000
Si      -2.70988222      -0.01453068      -2.71734517       0.00000000
Si      -2.69397993      -2.73790917       0.00929713       0.00000000
