10
Lattice="16.28999089631971 0.0 0.0 0.0 16.28999089631971 0.0 0.0 0.0 34.433804113860816" Properties=species:S:1:pos:R:3:initial_magmoms:R:1 pbc="T T T"
Si       0.60957180       0.10580355      -2.21764153       0.00000000
Si       2.27447496       0.23392440       0.61870694       0.00000000
Si      -0.72164700      -2.27152647      -0.33886326       0.00000000
Si      -1.08546786       2.13793218       1.01755391       0.00000000
Si       2.05260516       1.24385553       2.73628377       0.00000000
Si      -0.76869252      -3.07237545       1.90002394       0.00000000
Si      -1.24556598       0.90098361      -3.39934148       0.00000000
Si       2.54036034       1.94587308      -2.04516250       0.00000000
Si      -2.67314013       2.21521194      -1.98287172       0.00000000
Si       0.30139758       2.79076275       2.90349442       0.00000000
