10
Lattice="16.28999089631971 0.0 0.0 0.0 16.28999089631971 0.0 0.0 0.0 34.433804113860816" Properties=species:S:1:pos:R:3:initial_magmoms:R:1 pbc="T T T"
Si       1.08818829       0.14827158       2.07921756       0.00000000
Si       1.56159198      -0.59533434      -1.65764426       0.00000000
Si      -1.26669411      -2.00091699       0.07596101       0.00000000
Si      -0.96399333       2.15612811      -0.71832399       0.00000000
Si      -3.19000880      -0.79741179       0.41826765       0.00000000
Si       3.08257299       0.95451255       1.05102359       0.00000000
Si       3.20865759       1.09810890      -1.33933799       0.00000000
Si       0.10914300      -1.29253005      -3.54234514       0.00000000
Si      -3.38567450       0.03979647      -1.77434048       0.00000000
Si      -2.42181801       2.79658575       1.01049498       0.00000000
