10
Lattice="16.28999089631971 0.0 0.0 0.0 16.28999089631971 0.0 0.0 0.0 34.433804113860816" Properties=species:S:1:pos:R:3:initial_magmoms:R:1 pbc="T T T"
Si      -1.34399016       1.29481391       1.36919556       0.00000000
Si      -1.61143938      -1.18318343      -1.23412304       0.00000000
Si       1.38927636      -1.44336309       1.32596045       0.00000000
Si       0.85747302       1.87874525      -1.43235205       0.00000000
Si      -3.11305158       0.76490021      -1.38748478       0.00000000
Si      -2.48482773       2.73400283      -0.16841239       0.00000000
Si       0.02243133       2.62705898       2.71125727       0.00000000
Si       2.76099210       2.63052875      -0.17420416       0.00000000
Si      -2.69519679      -0.08583527       2.71497612       0.00000000
Si      -0.41870187      -2.29013358      -3.05642333       0.00000000
