10
Lattice="16.28999089631971 0.0 0.0 0.0 16.28999089631971 0.0 0.0 0.0 34.433804113860816" Properties=species:S:1:pos:R:3:initial_magmoms:R:1 pbc="T T T"
Si       1.61143938       1.18318343       1.23412304       0.00000000
Si      -1.14769566      -1.66406815       1.22990834       0.00000000
Si       1.19273751      -1.10695015      -1.82230030       0.00000000
Si      -1.50161220       1.94808363      -0.15336175       0.00000000
Si      -2.44900602      -0.24837604       2.58426636       0.00000000
Si      -0.87949710      -1.70663392      -3.02510818       0.00000000
Si       0.26744922       2.47799733       2.60331860       0.00000000
Si      -3.52398312       1.21240117       1.00263477       0.00000000
Si      -2.32635861       2.01047433      -2.39465931       0.00000000
Si       2.46891240       3.06192867      -0.19822902       0.00000000
