10
Lattice="16.28999089631971 0.0 0.0 0.0 16.28999089631971 0.0 0.0 0.0 34.433804113860816" Properties=species:S:1:pos:R:3:initial_magmoms:R:1 pbc="T T T"
Si      -0.17989047       2.02743711       1.08328808       0.00000000
Si       1.05008598      -1.29751805       1.61350009       0.00000000
Si       1.46870640       0.20685042      -1.83539165       0.00000000
Si      -2.25852705      -0.66117852      -0.34182456       0.00000000
Si      -0.79058628      -1.11087049       3.05558862       0.00000000
Si      -1.83207114      -2.06968522      -2.22170472       0.00000000
Si       0.90290583      -3.55130864       0.59887306       0.00000000
Si      -2.69242749      -1.78032433       1.84947509       0.00000000
Si       3.09197232       1.77328053      -1.24027188       0.00000000
Si       2.97900117       0.00030951       2.40802614       0.00000000
