10
Lattice="16.28999089631971 0.0 0.0 0.0 16.28999089631971 0.0 0.0 0.0 34.433804113860816" Properties=species:S:1:pos:R:3:initial_magmoms:R:1 pbc="T T T"
Si       0.55214955      -2.26643422      -0.37205746       0.00000000
Si       0.41945121      -0.05520681       2.34879996       0.00000000
Si       1.57731183       1.80905337      -0.28438895       0.00000000
Si      -2.37296430       0.38431368      -0.28645498       0.00000000
Si       1.16284536       0.87187338      -2.34435800       0.00000000
Si      -1.34969166      -2.93588806      -1.57817099       0.00000000
Si       0.12764844       3.68201241      -0.07110585       0.00000000
Si      -3.16677600      -1.88071308      -0.52687193       0.00000000
Si       1.34273583      -1.15556373      -3.42764608       0.00000000
Si       2.39282181      -2.45308178      -1.81414598       0.00000000
