10
Lattice="16.28999089631971 0.0 0.0 0.0 16.28999089631971 0.0 0.0 0.0 34.433804113860816" Properties=species:S:1:pos:R:3:initial_magmoms:R:1 pbc="T T T"
Si       1.55294199      -0.28712428       1.72062372       0.00000000
Si       1.15918011       1.07057717      -1.76518109       0.00000000
Si      -1.97355305       0.88594631       0.99176298       0.00000000
Si      -0.45341586      -2.23364475      -0.76233042       0.00000000
Si      -2.63345606      -1.68654510      -1.49408360       0.00000000
Si       0.14753853      -1.17435424       3.35361336       0.00000000
Si       2.47132332      -0.75693603      -2.55364677       0.00000000
Si       1.70916309       1.82200229       2.69527309       0.00000000
Si       0.77188536      -2.32213203      -2.86689127       0.00000000
Si      -1.75107074       0.41089733       3.32971628       0.00000000
