10
Lattice="16.28999089631971 0.0 0.0 0.0 16.28999089631971 0.0 0.0 0.0 34.433804113860816" Properties=species:S:1:pos:R:3:initial_magmoms:R:1 pbc="T T T"
Si       1.28081754      -1.47217617       1.29732873       0.00000000
Si       1.35788553       1.33846785      -1.37001853       0.00000000
Si      -1.35066906      -1.37526696      -1.36536996       0.00000000
Si      -1.38201102       1.28938608       1.49694160       0.00000000
Si      -0.49186026      -2.49160274       2.63312004       0.00000000
Si      -2.21555403      -0.56332449       2.85952243       0.00000000
Si      -2.71336014       2.69016318       0.01673484       0.00000000
Si       0.10634112       2.73274524       2.67519817       0.00000000
Si       2.72345994       2.69347005      -0.01380796       0.00000000
Si       0.00343719       2.69628822      -2.72808852       0.00000000
