10
Lattice="16.28999089631971 0.0 0.0 0.0 16.28999089631971 0.0 0.0 0.0 34.433804113860816" Properties=species:S:1:pos:R:3:initial_magmoms:R:1 pbc="T T T"
Si       0.02725317      -2.18517318      -0.90650483       0.00000000
Si      -1.55800818       1.16884008      -1.37025957       0.00000000
Si      -0.64734831      -0.70762131       2.18999117       0.00000000
Si       1.87071102       1.47678624       0.28487102       0.00000000
Si      -1.95574482      -3.02451543       0.26854939       0.00000000
Si      -0.26454960       1.55204604      -3.32641064       0.00000000
Si       1.18511379      -0.32091300      -3.53969374       0.00000000
Si       1.69122780       2.08999071       2.61497341       0.00000000
Si       1.15776288      -0.09558972       3.62143964       0.00000000
Si      -2.12354811       3.16773711      -0.24282732       0.00000000
