10
Lattice="16.28999089631971 0.0 0.0 0.0 16.28999089631971 0.0 0.0 0.0 34.433804113860816" Properties=species:S:1:pos:R:3:initial_magmoms:R:1 pbc="T T T"
Si      -0.15182280       2.06983998      -1.08890080       0.00000000
Si       2.22130440      -0.70120305      -0.27306022       0.00000000
Si      -1.87071102      -1.47678624      -0.28487102       0.00000000
Si      -0.17948322       0.61320447       2.33010239       0.00000000
Si       3.21409845       1.16028783       0.78268080       0.00000000
Si      -0.19023462       1.39183389      -3.30719656       0.00000000
Si      -0.71294814      -1.57237596       3.33656862       0.00000000
Si       1.28071980      -0.44435862      -3.56710306       0.00000000
Si      -2.15604666       3.11878566      -0.45624816       0.00000000
Si      -3.42871920      -0.30794616      -1.65513059       0.00000000
