10
Lattice="16.28999089631971 0.0 0.0 0.0 16.28999089631971 0.0 0.0 0.0 34.433804113860816" Properties=species:S:1:pos:R:3:initial_magmoms:R:1 pbc="T T T"
Si       0.80894511       1.71867645       1.49454987       0.00000000
Si       1.59791868      -1.87403418       0.24720042       0.00000000
Si      -1.74438207      -1.01877660       1.51114009       0.00000000
Si      -0.20235438       0.48303108      -2.79540665       0.00000000
Si       3.19350789       0.59307003      -1.70481859       0.00000000
Si       2.13332211       0.24780348       3.00254129       0.00000000
Si      -2.37260592      -2.98787922       0.29206769       0.00000000
Si       1.87266582      -0.62960850      -3.32338046       0.00000000
Si       1.66444704       3.56421942       0.18311907       0.00000000
Si      -0.60354450      -2.45796552       3.04874803       0.00000000
