10
Lattice="16.28999089631971 0.0 0.0 0.0 16.28999089631971 0.0 0.0 0.0 34.433804113860816" Properties=species:S:1:pos:R:3:initial_magmoms:R:1 pbc="T T T"
Si       1.35891180      -1.35879777      -1.36127234       0.00000000
Si      -1.35607734       1.35913986      -1.36523223       0.00000000
Si      -1.35555606      -1.37655387       1.35073559       0.00000000
Si       1.38538305       1.36720341       1.36798693       0.00000000
Si       0.07439643      -2.67322158       2.70766927       0.00000000
Si      -2.70581787       2.70446580      -0.00743771       0.00000000
Si      -2.68341912      -0.01203831       2.73342577       0.00000000
Si      -2.71107954      -2.71396287      -0.00368442       0.00000000
Si       2.71212210       2.71586880      -0.00681790       0.00000000
Si      -2.71205694      -0.00027693      -2.71975554       0.00000000
