10
Lattice="16.28999089631971 0.0 0.0 0.0 16.28999089631971 0.0 0.0 0.0 34.433804113860816" Properties=species:S:1:pos:R:3:initial_magmoms:R:1 pbc="T T T"
Si       1.86751818       0.86859909      -1.20528712       0.00000000
Si      -0.88399314      -1.85137479      -1.27322505       0.00000000
Si      -1.80815742       1.74790071      -0.00013774       0.00000000
Si       1.59316200      -1.15087221       1.64934570       0.00000000
Si      -0.53662518      -0.39433203       2.49593569       0.00000000
Si       0.42699348       2.18905020      -2.61290738       0.00000000
Si      -2.55423942      -1.53171612       1.71401243       0.00000000
Si      -2.31394563      -0.55470708      -2.63015873       0.00000000
Si      -0.76098735       3.60015516      -1.10401724       0.00000000
Si      -2.21082993      -3.21444054       0.05939835       0.00000000
