10
Lattice="16.28999089631971 0.0 0.0 0.0 16.28999089631971 0.0 0.0 0.0 34.433804113860816" Properties=species:S:1:pos:R:3:initial_magmoms:R:1 pbc="T T T"
Si       2.01530106      -0.44056305      -1.22804788       0.00000000
Si      -1.44493277      -1.85166801      -0.59360468       0.00000000
Si       0.05585841      -1.41638292       2.08101780       0.00000000
Si      -0.24775461       2.45790036      -0.72892961       0.00000000
Si      -2.50396196       1.85580567      -1.14192888       0.00000000
Si       2.50637940       1.46986299       1.84286379       0.00000000
Si       0.45367650      -3.43691959      -0.56970761       0.00000000
Si       1.12919022       0.28898460       3.38891977       0.00000000
Si       3.59831439       0.05247009       0.32991046       0.00000000
Si      -1.66741508      -1.37661903      -2.93155799       0.00000000
