10
Lattice="16.28999089631971 0.0 0.0 0.0 16.28999089631971 0.0 0.0 0.0 34.433804113860816" Properties=species:S:1:pos:R:3:initial_magmoms:R:1 pbc="T T T"
Si       1.35870003       1.33554284       1.36481902       0.00000000
Si      -1.35997065       1.35545247      -1.35696811       0.00000000
Si       1.35474156      -1.36026387      -1.35855207       0.00000000
Si      -1.34610786      -1.36948401       1.38389536       0.00000000
Si      -0.08262288       2.61802196       2.66634868       0.00000000
Si       2.70746316      -2.71489140      -0.00289244       0.00000000
Si       2.71235016      -0.00113839      -2.71555461       0.00000000
Si       2.71660185       2.71139624       0.00175612       0.00000000
Si      -2.71410948       2.71493117       0.00364999       0.00000000
Si      -0.00254124       2.71392119      -2.71603668       0.00000000
