10
Lattice="16.28999089631971 0.0 0.0 0.0 16.28999089631971 0.0 0.0 0.0 34.433804113860816" Properties=species:S:1:pos:R:3:initial_magmoms:R:1 pbc="T T T"
Si       0.90808605       1.62882963      -1.54990082       0.00000000
Si      -1.19273751       1.10695015       1.82230030       0.00000000
Si      -2.07223461      -0.59968377      -1.20280788       0.00000000
Si       1.57718151      -1.70321724       1.26014020       0.00000000
Si      -1.26315918      -0.13185126      -3.43928471       0.00000000
Si       0.41870187       2.29013358       3.05642333       0.00000000
Si      -2.34043317      -0.55711800       3.05220863       0.00000000
Si      -0.64648494       2.19143084      -3.24063598       0.00000000
Si       2.88911295       0.77051700      -2.68580379       0.00000000
Si       2.01010455       3.48927632      -0.55920529       0.00000000
