10
Lattice="16.28999089631971 0.0 0.0 0.0 16.28999089631971 0.0 0.0 0.0 34.433804113860816" Properties=species:S:1:pos:R:3:initial_magmoms:R:1 pbc="T T T"
Si      -1.35718506      -1.35673778      -1.35720915       0.00000000
Si      -1.35755973       1.35696840       1.35669264       0.00000000
Si       1.35700587       1.35760371      -1.35751905       0.00000000
Si       1.35733167      -1.35809117       1.35717471       0.00000000
Si       2.71363707      -0.00285075       2.71417726       0.00000000
Si      -2.71435383       2.71368105      -0.00041321       0.00000000
Si       2.71502172       2.71431636      -0.00037877       0.00000000
Si      -2.71516833      -2.71477315      -0.00106745       0.00000000
Si       2.71494027      -2.71542475      -0.00034434       0.00000000
Si      -0.00175932       2.71330638      -2.71737960       0.00000000
