10
Lattice="16.28999089631971 0.0 0.0 0.0 16.28999089631971 0.0 0.0 0.0 34.433804113860816" Properties=species:S:1:pos:R:3:initial_magmoms:R:1 pbc="T T T"
Si      -1.39424481       1.19577836      -1.58891434       0.00000000
Si       0.94771962       1.94563964       1.16004108       0.00000000
Si      -1.11140154      -1.55583788       1.55861258       0.00000000
Si       1.31256675      -1.49492957      -1.56160832       0.00000000
Si      -1.00667313       3.33048512       1.05808252       0.00000000
Si       2.13052023      -1.52645072       2.62977996       0.00000000
Si      -2.83556772       2.47825748      -0.28738469       0.00000000
Si      -2.56020156      -2.79221630      -0.07293084       0.00000000
Si       2.74846104       2.69791184      -0.19882090       0.00000000
Si      -0.03634299       2.57163176      -2.95197724       0.00000000
