10
Lattice="16.28999089631971 0.0 0.0 0.0 16.28999089631971 0.0 0.0 0.0 34.433804113860816" Properties=species:S:1:pos:R:3:initial_magmoms:R:1 pbc="T T T"
Si       0.51051231       0.09185931       2.26836255       0.00000000
Si       1.96535592      -0.72508419      -1.02037749       0.00000000
Si      -1.62326592      -1.56643011      -0.59511977       0.00000000
Si      -0.29719476       2.23456446      -0.64067572       0.00000000
Si      -0.20463498       2.39375034       2.44728069       0.00000000
Si       2.94966192      -1.96928181       0.81222503       0.00000000
Si      -0.33461289      -3.47702068      -1.22577524       0.00000000
Si      -1.93241754       3.08254041       0.85626589       0.00000000
Si       1.27130418      -2.40836247      -2.56766134       0.00000000
Si       3.21718608       1.21485933      -1.54136123       0.00000000
