10
Lattice="16.28999089631971 0.0 0.0 0.0 16.28999089631971 0.0 0.0 0.0 34.433804113860816" Properties=species:S:1:pos:R:3:initial_magmoms:R:1 pbc="T T T"
Si      -1.46692657       1.25506305       1.32494466       0.00000000
Si      -1.35511703      -1.33721352      -1.36908882       0.00000000
Si       1.35889062       1.37850867      -1.36478459       0.00000000
Si       1.41191457      -1.27241190       1.50981985       0.00000000
Si       0.27707172       2.32570701       2.49028854       0.00000000
Si       2.16231342       0.76128057       2.67220243       0.00000000
Si      -2.56397662      -0.46134909       2.75553228       0.00000000
Si      -2.71161289      -2.68051950      -0.01432447       0.00000000
Si       2.73205617      -2.68172496       0.02214095       0.00000000
Si      -0.00127062      -2.69464293      -2.72347439       0.00000000
