10
Lattice="16.28999089631971 0.0 0.0 0.0 16.28999089631971 0.0 0.0 0.0 34.433804113860816" Properties=species:S:1:pos:R:3:initial_magmoms:R:1 pbc="T T T"
Si       1.35448092      -1.35501849      -1.35741575       0.00000000
Si      -1.35856971      -1.35523026       1.35769122       0.00000000
Si       1.35614250       1.35987291       1.35796669       0.00000000
Si      -1.35979146       1.35995436      -1.36402704       0.00000000
Si       2.71251868      -2.71122615       0.00010330       0.00000000
Si      -0.00105885      -2.71287144       2.71503810       0.00000000
Si       2.71419759       0.00247608       2.71462490       0.00000000
Si      -2.71725345      -2.71309950      -0.00041321       0.00000000
Si      -2.71656927       0.00262269       2.71517584       0.00000000
Si       2.71458427       2.71797021       0.00061981       0.00000000
