10
Lattice="16.28999089631971 0.0 0.0 0.0 16.28999089631971 0.0 0.0 0.0 34.433804113860816" Properties=species:S:1:pos:R:3:initial_magmoms:R:1 pbc="T T T"
Si       1.35071697      -1.35536058      -1.36147894       0.00000000
Si      -1.37236734      -1.35883035       1.35469548       0.00000000
Si      -1.36459701       1.36225125      -1.36003272       0.00000000
Si       1.36743377       1.35444834       1.36657515       0.00000000
Si      -0.07087779       2.53926891       2.76951241       0.00000000
Si      -2.61306261       0.04979853       2.77670908       0.00000000
Si       2.70846404      -2.71160082      -0.00237593       0.00000000
Si       2.71046771       2.71257822      -0.00241037       0.00000000
Si       2.70830114       0.00254124      -2.71858479       0.00000000
Si      -0.00637902      -2.71213839      -2.71920460       0.00000000
