10
Lattice="16.28999089631971 0.0 0.0 0.0 16.28999089631971 0.0 0.0 0.0 34.433804113860816" Properties=species:S:1:pos:R:3:initial_magmoms:R:1 pbc="T T T"
Si       1.52535392       0.97652034      -1.41781268       0.00000000
Si       1.35347161      -1.62193014       1.06159477       0.00000000
Si      -1.92226887      -0.37225908      -1.32983426       0.00000000
Si      -0.02375082       1.73035638       1.62152318       0.00000000
Si      -1.49358123      -2.76185547       1.30814095       0.00000000
Si      -2.05203501      -2.64064158      -0.99241722       0.00000000
Si       3.22239725       1.50571728       0.16090926       0.00000000
Si      -0.10010205       2.63029743      -2.61332059       0.00000000
Si       3.47409404      -0.43041438       1.53888200       0.00000000
Si       0.29225889       0.84203010       3.80621153       0.00000000
