10
Lattice="16.28999089631971 0.0 0.0 0.0 16.28999089631971 0.0 0.0 0.0 34.433804113860816" Properties=species:S:1:pos:R:3:initial_magmoms:R:1 pbc="T T T"
Si       0.33503643      -2.32209063      -0.17816060       0.00000000
Si       1.91202639       1.36950030      -0.15013147       0.00000000
Si      -1.19935125       0.92637972       1.81400825       0.00000000
Si      -0.31600971       0.88832628      -2.18468836       0.00000000
Si      -0.61825437       3.17022948       1.41839805       0.00000000
Si       1.71636068       2.20670856      -2.34273961       0.00000000
Si      -3.44755044       0.23332167       1.46925681       0.00000000
Si       1.79334071       3.03653745       1.42907254       0.00000000
Si       2.33969102      -2.84926761       0.99685919       0.00000000
Si       1.06121272      -2.46396024      -2.74461676       0.00000000
