10
Lattice="16.28999089631971 0.0 0.0 0.0 16.28999089631971 0.0 0.0 0.0 34.433804113860816" Properties=species:S:1:pos:R:3:initial_magmoms:R:1 pbc="T T T"
Si       1.69555998      -1.64649546       0.12069055       0.00000000
Si      -1.85313411       0.29128149       1.49866329       0.00000000
Si      -0.93100608       0.37286181      -2.18709872       0.00000000
Si       1.49849822       1.72177155       0.80137837       0.00000000
Si      -0.34990920       2.61671157      -2.58270892       0.00000000
Si       3.70640573      -0.61888968      -0.47928439       0.00000000
Si       3.32220608       1.70978211      -0.66340204       0.00000000
Si       1.99710417      -2.23765956       2.34205093       0.00000000
Si       0.20965230       3.69040176       1.04713257       0.00000000
Si      -0.17800083      -2.24264430       3.13227274       0.00000000
