10
Lattice="16.28999089631971 0.0 0.0 0.0 16.28999089631971 0.0 0.0 0.0 34.433804113860816" Properties=species:S:1:pos:R:3:initial_magmoms:R:1 pbc="T T T"
Si       1.56758574       1.08993132      -1.44280616       0.00000000
Si      -1.47670479      -1.11817818      -1.55722976       0.00000000
Si      -1.24590807       1.43180955       1.56501383       0.00000000
Si       1.43801492      -1.27211868       1.57841892       0.00000000
Si      -2.61633690      -2.58882309       0.12541143       0.00000000
Si       2.75923834       2.66358997       0.10947545       0.00000000
Si       2.80730035      -2.68462458       0.28406183       0.00000000
Si      -2.63518443       2.87517264       0.23905338       0.00000000
Si      -2.61169425       0.07467336       2.94738377       0.00000000
Si       0.10388133      -2.64451860       2.95258328       0.00000000
