10
Lattice="16.28999089631971 0.0 0.0 0.0 16.28999089631971 0.0 0.0 0.0 34.433804113860816" Properties=species:S:1:pos:R:3:initial_magmoms:R:1 pbc="T T T"
Si       1.35780861       1.35642035      -1.35710585       0.00000000
Si      -1.35760860       1.35733358       1.35751905       0.00000000
Si      -1.35606105      -1.35850455      -1.35806999       0.00000000
Si       1.35783394      -1.35811359       1.35741575       0.00000000
Si      -0.00130320       2.71257400       2.71452160       0.00000000
Si      -0.00024435      -2.71308321       2.71586452       0.00000000
Si      -2.71521720      -0.00179190       2.71452160       0.00000000
Si       2.71551598       2.71428445      -0.00041321       0.00000000
Si      -2.71476108      -2.71518462      -0.00010330       0.00000000
Si      -2.71494027       2.71542475       0.00034434       0.00000000
