10
Lattice="16.28999089631971 0.0 0.0 0.0 16.28999089631971 0.0 0.0 0.0 34.433804113860816" Properties=species:S:1:pos:R:3:initial_magmoms:R:1 pbc="T T T"
Si       1.80936288       1.53803664      -0.28762573       0.00000000
Si       1.29495726      -1.47619980      -1.52045990       0.00000000
Si      -1.43255889       1.50864948      -1.35879310       0.00000000
Si      -0.44527086      -0.92253528       2.50275358       0.00000000
Si      -1.94971752       2.67338448       0.63802431       0.00000000
Si       2.75271419       1.07375535       1.75908630       0.00000000
Si       2.28933144       0.03018537      -3.09880307       0.00000000
Si       1.37130849      -2.37614085       2.71438386       0.00000000
Si      -0.25285338      -2.45928501      -3.09160640       0.00000000
Si       1.17985212       2.18056311       3.13168737       0.00000000
