10
Lattice="16.28999089631971 0.0 0.0 0.0 16.28999089631971 0.0 0.0 0.0 34.433804113860816" Properties=species:S:1:pos:R:3:initial_magmoms:R:1 pbc="T T T"
Si       0.94335131      -0.46428129       2.04671203       0.00000000
Si       1.38770342       1.90759877      -0.05643704       0.00000000
Si       1.84712703      -0.12486285      -1.49408360       0.00000000
Si      -1.80936288      -1.53803664       0.28762573       0.00000000
Si       0.47996856      -1.50785127      -2.81117734       0.00000000
Si      -0.51440562      -3.01423644      -1.23283418       0.00000000
Si      -0.33938586       3.24067463       0.76164174       0.00000000
Si      -3.24192177      -0.02938716      -1.07116738       0.00000000
Si       2.78893664       1.06407909       1.66824987       0.00000000
Si      -0.62951076       0.64252647       3.41931309       0.00000000
