10
Lattice="16.28999089631971 0.0 0.0 0.0 16.28999089631971 0.0 0.0 0.0 34.433804113860816" Properties=species:S:1:pos:R:3:initial_magmoms:R:1 pbc="T T T"
Si       1.00813923      -0.26780760      -2.05898669       0.00000000
Si       1.83161502       0.91225629       1.10866133       0.00000000
Si      -0.92906268      -1.94168655       0.98380773       0.00000000
Si      -1.69035629       1.76184495      -0.24867412       0.00000000
Si       0.47578203       2.16746595       2.48744327       0.00000000
Si      -2.25100826      -0.56127195       2.43764508       0.00000000
Si      -0.99145013       0.74577249      -3.20811224       0.00000000
Si       3.21321879       0.81570546      -1.73813233       0.00000000
Si       2.64637566       2.65683384      -0.25694303       0.00000000
Si      -0.88850058       3.47600907       1.14791589       0.00000000
