10
Lattice="16.28999089631971 0.0 0.0 0.0 16.28999089631971 0.0 0.0 0.0 34.433804113860816" Properties=species:S:1:pos:R:3:initial_magmoms:R:1 pbc="T T T"
Si       1.92331469      -1.20350520      -0.34230664       0.00000000
Si      -0.11868568       1.66703715       1.57920401       0.00000000
Si      -0.19566571       0.83720826      -2.19260814       0.00000000
Si      -1.91202639      -1.36950030       0.15013147       0.00000000
Si      -2.22803610      -0.48117402      -2.03455689       0.00000000
Si       3.19000880       0.79741179      -0.41826765       0.00000000
Si      -2.53028076       1.80072918       1.56852952       0.00000000
Si       1.99298702      -2.46436749       1.59008509       0.00000000
Si       1.26980876      -2.64194478      -2.11719806       0.00000000
Si      -3.11137764      -0.44312058       1.96413972       0.00000000
