10
Lattice="16.28999089631971 0.0 0.0 0.0 16.28999089631971 0.0 0.0 0.0 34.433804113860816" Properties=species:S:1:pos:R:3:initial_magmoms:R:1 pbc="T T T"
Si      -1.29955593       1.37993472      -1.41226883       0.00000000
Si       1.03549014       1.70446247       1.29691552       0.00000000
Si      -1.33755887      -1.48432851       1.31285838       0.00000000
Si       1.42757415      -1.31422833      -1.41646976       0.00000000
Si      -1.79698248       0.54813311       2.75050494       0.00000000
Si       1.58767227      -0.07727976       3.00042563       0.00000000
Si      -2.64073993       0.02664233      -2.77633031       0.00000000
Si      -2.56674509       2.86489691      -0.02165887       0.00000000
Si       0.07662816      -2.69400762      -2.77615814       0.00000000
Si       0.07351677       2.74088114      -2.77078646       0.00000000
