10
Lattice="16.28999089631971 0.0 0.0 0.0 16.28999089631971 0.0 0.0 0.0 34.433804113860816" Properties=species:S:1:pos:R:3:initial_magmoms:R:1 pbc="T T T"
Si      -0.94335131       0.46428129      -2.04671203       0.00000000
Si      -1.57286207       1.10680776       1.37260107       0.00000000
Si       0.65096469      -2.13151392       0.79724631       0.00000000
Si       1.84558532       1.52836038      -0.37846215       0.00000000
Si       0.44435210       2.37188006      -2.10314906       0.00000000
Si      -2.75271419      -1.07375535      -1.75908630       0.00000000
Si       3.07264586      -0.01518228       1.85326281       0.00000000
Si      -0.22565234       2.04594159       2.98806389       0.00000000
Si       0.90377572       0.33941844      -3.54079562       0.00000000
Si      -2.82028511      -0.46423242       2.55302697       0.00000000
