10
Lattice="16.28999089631971 0.0 0.0 0.0 16.28999089631971 0.0 0.0 0.0 34.433804113860816" Properties=species:S:1:pos:R:3:initial_magmoms:R:1 pbc="T T T"
Si      -1.40123322       0.84351968      -1.72468691       0.00000000
Si       0.47718297       1.86658055       1.42008531       0.00000000
Si      -1.84558532      -1.52836038       0.37846215       0.00000000
Si       1.98342153       0.21810681      -1.47476622       0.00000000
Si       1.22706054      -1.54354266       2.23172496       0.00000000
Si       2.22444837       0.64403885       2.47527539       0.00000000
Si      -2.78893664      -1.06407909      -1.66824987       0.00000000
Si       3.37028697       0.87093738       0.41117428       0.00000000
Si      -0.94180961      -1.18894194      -3.16233347       0.00000000
Si      -3.41844740      -0.42155262       1.75106322       0.00000000
