10
Lattice="16.28999089631971 0.0 0.0 0.0 16.28999089631971 0.0 0.0 0.0 34.433804113860816" Properties=species:S:1:pos:R:3:initial_magmoms:R:1 pbc="T T T"
Si       0.11868568      -1.66703715      -1.57920401       0.00000000
Si       0.88687647       1.92696039      -0.98697668       0.00000000
Si       1.26052020      -0.77323743       1.90863239       0.00000000
Si      -2.41159508       0.13369203      -0.01067449       0.00000000
Si      -0.56318765      -0.76124799       3.37341281       0.00000000
Si      -2.99269196      -2.11015773       0.38493571       0.00000000
Si      -2.97573407       1.77596838       1.57107762       0.00000000
Si      -1.79334071      -3.03653745      -1.42907254       0.00000000
Si       2.34470115       1.28650275      -2.71579565       0.00000000
Si      -0.95359705       3.34762662      -1.58099457       0.00000000
