10
Lattice="10.86 0.0 0.0 0.0 10.86 0.0 0.0 0.0 10.86" Properties=species:S:1:pos:R:3:initial_magmoms:R:1 pbc="T T T"
Si      -1.33747416      -1.16403996       1.32280230       0.00000000
Si       1.37752584      -1.16403996      -1.39219770       0.00000000
Si       1.37752584       1.55096004       1.32280230       0.00000000
Si      -1.11462696       2.02250124      -1.24012512       0.00000000
Si       0.02002584      -2.52153996       2.68030230       0.00000000
Si      -2.69497416      -2.52153996      -0.03469770       0.00000000
Si      -2.79623280       0.05118318       2.43522468       0.00000000
Si       2.73502584      -2.52153996      -0.03469770       0.00000000
Si       0.02002584      -2.52153996      -2.74969770       0.00000000
Si       2.73502584       0.19346004       2.68030230       0.00000000
