10
Lattice="10.86 0.0 0.0 0.0 10.86 0.0 0.0 0.0 10.86" Properties=species:S:1:pos:R:3:initial_magmoms:R:1 pbc="T T T"
Si       1.40680440       1.39139406       0.93065856       0.00000000
Si      -1.30819560       1.39139406      -1.78434144       0.00000000
Si       1.40680440      -1.32360594      -1.78434144       0.00000000
Si      -0.00320370      -2.39856132       2.40616332       0.00000000
Si       0.18958302       2.87888826       2.05497264       0.00000000
Si       2.76430440       0.03389406       2.28815856       0.00000000
Si      -2.60138268      -2.52031278      -0.29582640       0.00000000
Si      -2.68399470       2.57864184      -0.49620426       0.00000000
Si       2.76430440      -2.68110594      -0.42684144       0.00000000
Si       2.76430440       2.74889406      -0.42684144       0.00000000
