10
Lattice="10.86 0.0 0.0 0.0 10.86 0.0 0.0 0.0 10.86" Properties=species:S:1:pos:R:3:initial_magmoms:R:1 pbc="T T T"
Si      -1.32949206       1.31917506      -1.20340746       0.00000000
Si       1.38550794       1.31917506       1.51159254       0.00000000
Si      -1.32949206      -1.39582494       1.51159254       0.00000000
Si      -2.44655166      -0.26434326      -2.47290888       0.00000000
Si       0.02800794       2.67667506      -2.56090746       0.00000000
Si      -2.68699206       2.67667506       0.15409254       0.00000000
Si      -2.67061518      -2.72078838       0.14766342       0.00000000
Si       2.74300794       2.67667506       0.15409254       0.00000000
Si       0.02800794       2.67667506       2.86909254       0.00000000
Si      -2.68699206      -0.03832494       2.86909254       0.00000000
