10
Lattice="10.86 0.0 0.0 0.0 10.86 0.0 0.0 0.0 10.86" Properties=species:S:1:pos:R:3:initial_magmoms:R:1 pbc="T T T"
Si       1.06271616       1.63892604       0.99462396       0.00000000
Si      -1.65228384      -1.07607396       0.99462396       0.00000000
Si       1.06271616      -1.07607396      -1.72037604       0.00000000
Si       2.42021616       0.28142604       2.35212396       0.00000000
Si      -0.29478384      -2.43357396       2.35212396       0.00000000
Si       2.42021616      -2.43357396      -0.36287604       0.00000000
Si      -0.29438202       3.02872368       2.37306204       0.00000000
Si       2.42021616       2.99642604      -0.36287604       0.00000000
Si      -3.00978384      -2.43357396      -0.36287604       0.00000000
Si       2.42021616       0.28142604      -3.07787604       0.00000000
