10
Lattice="10.86 0.0 0.0 0.0 10.86 0.0 0.0 0.0 10.86" Properties=species:S:1:pos:R:3:initial_magmoms:R:1 pbc="T T T"
Si      -1.68235518      -1.46818512      -0.87462096       0.00000000
Si      -1.33899456       1.17809280       1.63707984       0.00000000
Si       0.89186664      -1.48283526       1.77833586       0.00000000
Si      -0.18986538       1.53478950      -2.06034834       0.00000000
Si      -2.94493878      -0.28173012      -2.29580400       0.00000000
Si      -0.22993878      -2.99673012      -2.29580400       0.00000000
Si      -2.94493878       2.43326988       0.41919600       0.00000000
Si      -1.36721970       3.50922438      -0.87213402       0.00000000
Si       2.48506122      -2.99673012       0.41919600       0.00000000
Si      -0.22993878       2.43326988       3.13419600       0.00000000
