10
Lattice="16.28999089631971 0.0 0.0 0.0 16.28999089631971 0.0 0.0 0.0 34.25627252547053" Properties=species:S:1:pos:R:3:initial_magmoms:R:1 pbc="T T T"
Si      -1.17525834      -0.86519448      -1.85131277       0.00000000
Si      -1.38430791       1.78642071       0.85116608       0.00000000
Si       0.19982943      -2.03590791       1.30674050       0.00000000
Si       2.24256285       0.51948810      -0.82201397       0.00000000
Si       2.67009390      -1.53904662      -2.01156370       0.00000000
Si       0.61656021      -1.62267948      -3.28863826       0.00000000
Si      -0.41917428       3.69342260      -0.14332832       0.00000000
Si      -2.46593133      -2.68055208      -1.10164808       0.00000000
Si      -2.79674979       0.67034979      -2.63780297       0.00000000
Si       3.60080676       1.12928796       1.00699795       0.00000000
