10
Lattice="16.28999089631971 0.0 0.0 0.0 16.28999089631971 0.0 0.0 0.0 34.25627252547053" Properties=species:S:1:pos:R:3:initial_magmoms:R:1 pbc="T T T"
Si       2.25099130      -0.49257702       0.36006788       0.00000000
Si      -0.66866703      -1.77661998       1.38895560       0.00000000
Si      -0.33923599      -0.41642127      -2.29229401       0.00000000
Si      -0.91826567       2.06313406       0.73044691       0.00000000
Si      -2.21482165      -0.28026945       2.48217664       0.00000000
Si      -3.12743632       1.23546359       0.86428624       0.00000000
Si       2.75158300       1.69420302       1.28748847       0.00000000
Si       2.86228984      -0.73184454      -1.86265160       0.00000000
Si       0.51162655       1.60250173      -3.18860988       0.00000000
Si      -1.34693932      -3.47372847      -0.15908622       0.00000000
