10
Lattice="16.28999089631971 0.0 0.0 0.0 16.28999089631971 0.0 0.0 0.0 34.25627252547053" Properties=species:S:1:pos:R:3:initial_magmoms:R:1 pbc="T T T"
Si      -1.05389784       1.55246958      -1.41281168       0.00000000
Si      -1.37857383      -1.33757679       1.37046748       0.00000000
Si       1.34244261       1.37500632       1.37070728       0.00000000
Si       1.35594702      -1.44867622      -1.34318920       0.00000000
Si       2.36120292       0.13528845      -2.95539789       0.00000000
Si      -0.01246185      -2.70006956       2.72972288       0.00000000
Si       2.70101232       0.01594791       2.73009970       0.00000000
Si       2.69273700       2.73900060      -0.00995145       0.00000000
Si      -2.70962973       2.72253141      -0.00487810       0.00000000
Si      -2.74045041      -2.69154591      -0.01345245       0.00000000
