10
Lattice="16.28999089631971 0.0 0.0 0.0 16.28999089631971 0.0 0.0 0.0 34.25627252547053" Properties=species:S:1:pos:R:3:initial_magmoms:R:1 pbc="T T T"
Si       1.37342619      -1.27425334       1.36884373       0.00000000
Si      -1.19834127      -1.49677474      -1.39029643       0.00000000
Si      -1.35594702       1.44867622       1.34318920       0.00000000
Si       1.00525590       1.58396467      -1.61220869       0.00000000
Si      -1.42141653       0.35465285      -2.81696821       0.00000000
Si       2.06868339      -0.25758237      -2.69515284       0.00000000
Si       2.57782734       2.69851018      -0.04216607       0.00000000
Si      -0.01433520      -2.60980528       2.71906917       0.00000000
Si      -2.74833477      -2.63225290      -0.04605758       0.00000000
Si       2.73544938      -2.66831896      -0.03180354       0.00000000
