10
Lattice="16.28999089631971 0.0 0.0 0.0 16.28999089631971 0.0 0.0 0.0 34.25627252547053" Properties=species:S:1:pos:R:3:initial_magmoms:R:1 pbc="T T T"
Si      -1.40541975       1.15499358       1.44386844       0.00000000
Si       1.51804881      -1.61688724       0.78039258       0.00000000
Si       1.87541883       1.54908126      -0.31156097       0.00000000
Si      -1.69847685      -1.08084313      -1.72182399       0.00000000
Si       0.19375326       2.38365054      -1.93770714       0.00000000
Si      -0.07828974      -2.78333288      -1.97391604       0.00000000
Si      -1.38759849       3.11365431      -0.23609436       0.00000000
Si      -0.09353718      -3.20397326       1.32883581       0.00000000
Si      -1.07580789       0.79081434      -3.21509000       0.00000000
Si      -2.03401827      -0.72069566       2.85933841       0.00000000
