10
Lattice="16.28999089631971 0.0 0.0 0.0 16.28999089631971 0.0 0.0 0.0 34.25627252547053" Properties=species:S:1:pos:R:3:initial_magmoms:R:1 pbc="T T T"
Si       1.70334756       1.13424012      -1.09102863       0.00000000
Si       1.30673493      -1.63959176       1.06112289       0.00000000
Si      -1.67312961      -0.77744025      -1.48117354       0.00000000
Si      -0.98145621       1.58892660       1.47980329       0.00000000
Si      -3.15891770       1.02960945      -1.24576430       0.00000000
Si       2.86806627      -0.15495048       2.10196606       0.00000000
Si      -0.22734324      -2.34766104       2.71977828       0.00000000
Si       3.18140442       1.66555476       0.67118352       0.00000000
Si      -3.29182618       1.33190298       1.08236179       0.00000000
Si       2.26090539      -0.17770761      -2.94908989       0.00000000
