10
Lattice="16.28999089631971 0.0 0.0 0.0 16.28999089631971 0.0 0.0 0.0 34.25627252547053" Properties=species:S:1:pos:R:3:initial_magmoms:R:1 pbc="T T T"
Si      -1.30673493       1.63959176      -1.06112289       0.00000000
Si      -1.53407817      -0.70806928       1.65865539       0.00000000
Si       1.56133134       1.48464128       1.04084317       0.00000000
Si       1.04011650      -1.70198313      -1.39197016       0.00000000
Si       0.39661263       2.77383188      -2.15215152       0.00000000
Si      -0.16969293       0.10247224       3.54131266       0.00000000
Si       3.11538105      -0.09765366       1.75238060       0.00000000
Si       0.55291518       2.26740836       2.99283518       0.00000000
Si       1.87466949       3.30514652      -0.38993937       0.00000000
Si       1.67215221      -1.38488199       3.15339442       0.00000000
