10
Lattice="16.28999089631971 0.0 0.0 0.0 16.28999089631971 0.0 0.0 0.0 34.25627252547053" Properties=species:S:1:pos:R:3:initial_magmoms:R:1 pbc="T T T"
Si      -1.35796698       1.35641943      -1.36185888       0.00000000
Si       1.35897696      -1.35843939      -1.36179036       0.00000000
Si       1.34320824       1.37166687       1.36778521       0.00000000
Si      -1.35444834      -1.37277459       1.39022308       0.00000000
Si       2.64683178      -0.04180014       2.70247885       0.00000000
Si      -2.71210581       2.71406061      -0.00116471       0.00000000
Si      -2.71383255      -2.71414206      -0.00630316       0.00000000
Si       2.71371852      -2.71572219      -0.00767341       0.00000000
Si       2.71969695       2.71158453      -0.00202112       0.00000000
Si      -0.00022806       2.71492398      -2.71936720       0.00000000
