10
Lattice="16.28999089631971 0.0 0.0 0.0 16.28999089631971 0.0 0.0 0.0 34.25627252547053" Properties=species:S:1:pos:R:3:initial_magmoms:R:1 pbc="T T T"
Si      -0.60206211      -0.21794228       2.30722976       0.00000000
Si      -2.28086783       0.05038497      -0.88494278       0.00000000
Si       1.21642317      -1.75004677      -1.20561593       0.00000000
Si       1.13256225       2.21312193      -0.64405254       0.00000000
Si       2.85814566      -0.43038017       2.03191194       0.00000000
Si      -1.84804253       2.95071684       0.93810855       0.00000000
Si       1.31282739       0.82990545       3.28490432       0.00000000
Si      -0.35728531       2.55871428      -2.66818830       0.00000000
Si      -2.31655922       1.34440881       2.57555929       0.00000000
Si       2.48505579      -2.61270001       1.11483676       0.00000000
