10
Lattice="16.28999089631971 0.0 0.0 0.0 16.28999089631971 0.0 0.0 0.0 34.25627252547053" Properties=species:S:1:pos:R:3:initial_magmoms:R:1 pbc="T T T"
Si       1.32696711       1.22779359      -1.49079956       0.00000000
Si      -1.26956115      -1.59283620      -1.27738286       0.00000000
Si      -1.58135175       0.73000377       1.70161278       0.00000000
Si       1.68166557      -0.83456928       1.62614617       0.00000000
Si      -0.19375326      -2.38365054       1.93770714       0.00000000
Si       3.11779197       2.06083161      -0.19978269       0.00000000
Si       0.02334357       2.64126060      -2.82549319       0.00000000
Si      -2.67431301      -0.10318086      -2.80305532       0.00000000
Si      -1.59917301      -1.22865696       3.38157558       0.00000000
Si       2.74108572      -0.10155186      -2.83385173       0.00000000
