10
Lattice="16.28999089631971 0.0 0.0 0.0 16.28999089631971 0.0 0.0 0.0 34.25627252547053" Properties=species:S:1:pos:R:3:initial_magmoms:R:1 pbc="T T T"
Si      -1.38569256      -1.80348219      -0.43399296       0.00000000
Si       0.03163518       0.65251224       2.25152903       0.00000000
Si       2.34522243      -0.18396297      -0.30789555       0.00000000
Si      -1.30500819       1.45130868      -1.37768528       0.00000000
Si      -0.54752319      -1.45109691       3.11067682       0.00000000
Si      -3.41060472      -0.84243735       0.20838102       0.00000000
Si      -0.93009384       0.23133429      -3.41035086       0.00000000
Si      -0.54079542       3.48171057      -0.45536889       0.00000000
Si       2.67253740       1.58785146      -1.80242904       0.00000000
Si      -1.55631402      -2.05043859      -2.72495098       0.00000000
