10
Lattice="16.28999089631971 0.0 0.0 0.0 16.28999089631971 0.0 0.0 0.0 34.25627252547053" Properties=species:S:1:pos:R:3:initial_magmoms:R:1 pbc="T T T"
Si       2.32036389      -0.14152752      -0.28819818       0.00000000
Si      -0.42134085      -2.31883263      -0.54261966       0.00000000
Si      -0.73065537       1.39072617      -1.84367362       0.00000000
Si      -0.93910221       0.38851650       2.22152051       0.00000000
Si      -2.88312637      -0.71807949       1.33205590       0.00000000
Si       1.91076813      -0.52924581      -2.63389775       0.00000000
Si      -0.42956730      -0.40317750      -3.29545526       0.00000000
Si       2.88350919       2.03473503       0.47749845       0.00000000
Si      -2.09365596      -2.90976867       1.00134566       0.00000000
Si       1.24089075       3.53626578      -0.29141827       0.00000000
