10
Lattice="16.28999089631971 0.0 0.0 0.0 16.28999089631971 0.0 0.0 0.0 34.25627252547053" Properties=species:S:1:pos:R:3:initial_magmoms:R:1 pbc="T T T"
Si      -1.36260963       1.31900130      -1.33322747       0.00000000
Si       1.32598971      -1.35700587      -1.35747064       0.00000000
Si      -1.36135530      -1.34934957       1.34986917       0.00000000
Si       1.35397593       1.36598166       1.34747123       0.00000000
Si       0.10322973       2.49219081      -2.75644762       0.00000000
Si      -0.18120996      -2.31612849      -2.91673281       0.00000000
Si      -0.00299736      -2.70839169       2.70782283       0.00000000
Si      -2.71503801      -2.70125667      -0.01836137       0.00000000
Si       2.71249677       0.00729792       2.70648684       0.00000000
Si      -2.71733490       0.00801468       2.70700068       0.00000000
