10
Lattice="16.28999089631971 0.0 0.0 0.0 16.28999089631971 0.0 0.0 0.0 34.25627252547053" Properties=species:S:1:pos:R:3:initial_magmoms:R:1 pbc="T T T"
Si       1.35242838      -1.35534429      -1.36055714       0.00000000
Si      -1.36197432       1.36138788      -1.35980350       0.00000000
Si      -1.37648871      -1.33991766       1.36980633       0.00000000
Si       1.36231641       1.35669636       1.37487627       0.00000000
Si      -0.05843223       2.65380390       2.74314107       0.00000000
Si       2.71109583      -2.70989037      -0.00390522       0.00000000
Si       2.71065600       0.00302994      -2.71741459       0.00000000
Si      -0.00433314      -2.71191033      -2.71765439       0.00000000
Si       2.71300176       2.71766070      -0.00359691       0.00000000
Si      -2.71969695      -2.71158453       0.00202112       0.00000000
