10
Lattice="16.28999089631971 0.0 0.0 0.0 16.28999089631971 0.0 0.0 0.0 34.25627252547053" Properties=species:S:1:pos:R:3:initial_magmoms:R:1 pbc="T T T"
Si       1.07557983       1.54473183      -1.45572111       0.00000000
Si      -1.62913032      -1.19016369      -1.38073409       0.00000000
Si       1.67365089      -1.30298823       1.48069395       0.00000000
Si       2.39813235       0.19841220      -2.95320065       0.00000000
Si       2.68301187      -2.75931423      -0.08797016       0.00000000
Si       2.09549673       3.25487232      -0.16456723       0.00000000
Si      -0.31006386      -2.50769889      -2.94583555       0.00000000
Si      -2.62207098      -3.05238762      -0.18279157       0.00000000
Si       0.33361920      -2.68775226       2.98735417       0.00000000
Si      -3.29540836      -0.78087744       2.36625335       0.00000000
