10
Lattice="16.28999089631971 0.0 0.0 0.0 16.28999089631971 0.0 0.0 0.0 34.25627252547053" Properties=species:S:1:pos:R:3:initial_magmoms:R:1 pbc="T T T"
Si      -0.77698413       1.74868263      -1.36850460       0.00000000
Si      -0.76421277      -2.03040189      -0.92231640       0.00000000
Si      -0.98331327       0.53545230       2.14639647       0.00000000
Si       2.42115012       0.01870092      -0.11503263       0.00000000
Si       0.54079542      -3.48171057       0.45536889       0.00000000
Si       0.96500331       1.72330281      -3.00516744       0.00000000
Si       0.40821111       2.38213557       2.92336342       0.00000000
Si       2.96116362       1.78667091      -1.59363694       0.00000000
Si      -3.06502866      -2.22645204      -0.42858047       0.00000000
Si       3.32970858      -0.12233790       2.09624526       0.00000000
