10
Lattice="16.28999089631971 0.0 0.0 0.0 16.28999089631971 0.0 0.0 0.0 34.25627252547053" Properties=species:S:1:pos:R:3:initial_magmoms:R:1 pbc="T T T"
Si      -1.35658233      -1.35848826       1.35624084       0.00000000
Si      -1.35705474       1.35716877      -1.35733704       0.00000000
Si       1.35769005       1.35656604       1.35819345       0.00000000
Si       1.35796698      -1.35786924      -1.35720002       0.00000000
Si      -2.71397916       2.71448102       0.00047959       0.00000000
Si       2.71448415       0.00097740      -2.71470835       0.00000000
Si      -2.71508688      -0.00079821      -2.71443430       0.00000000
Si      -2.71443528      -2.71513575       0.00034256       0.00000000
Si       2.71502172      -2.71489140      -0.00006851       0.00000000
Si       2.71536381       2.71471274       0.00041108       0.00000000
