10
Lattice="16.28999089631971 0.0 0.0 0.0 16.28999089631971 0.0 0.0 0.0 34.25627252547053" Properties=species:S:1:pos:R:3:initial_magmoms:R:1 pbc="T T T"
Si       1.35208629      -1.35627282       1.35976924       0.00000000
Si      -1.35785295      -1.35664749      -1.35589828       0.00000000
Si       1.35658233       1.35848826      -1.35624084       0.00000000
Si      -1.35827649       1.36060596       1.35980350       0.00000000
Si       2.71454931       0.00061902      -2.71344086       0.00000000
Si      -0.00083079      -2.71472850      -2.71337235       0.00000000
Si       2.71451673      -2.71370223       0.00143876       0.00000000
Si      -0.00047241       2.71565703      -2.71357789       0.00000000
Si      -2.71592744       0.00057015      -2.71333809       0.00000000
Si       2.71427238       2.71505430       0.00195261       0.00000000
