10
Lattice="16.28999089631971 0.0 0.0 0.0 16.28999089631971 0.0 0.0 0.0 34.25627252547053" Properties=species:S:1:pos:R:3:initial_magmoms:R:1 pbc="T T T"
Si      -0.85086254      -2.01892300       0.89631587       0.00000000
Si      -1.47789559       1.78370776       0.50558861       0.00000000
Si      -0.13483233      -0.37246596      -2.35477749       0.00000000
Si       2.27608767      -0.03568487       0.85167992       0.00000000
Si       2.35066329      -2.33434627       1.32595828       0.00000000
Si      -0.51162655      -1.60250173       3.18860988       0.00000000
Si      -2.56766957      -0.36631160      -2.72313539       0.00000000
Si       0.83030130       1.53453592      -3.34927189       0.00000000
Si      -0.78839527       3.64387915      -0.78573656       0.00000000
Si       0.69708168      -3.74030359       0.34167225       0.00000000
