10
Lattice="16.28999089631971 0.0 0.0 0.0 16.28999089631971 0.0 0.0 0.0 34.25627252547053" Properties=species:S:1:pos:R:3:initial_magmoms:R:1 pbc="T T T"
Si       1.35373158       1.35925389       1.36719943       0.00000000
Si      -1.35791811      -1.35760697       1.37038527       0.00000000
Si      -1.48449141       1.23634584      -1.38852055       0.00000000
Si       1.37024964      -1.33720537      -1.41855646       0.00000000
Si      -0.19018575      -2.57096404      -2.69693978       0.00000000
Si       2.69141751      -2.71821096       0.01408276       0.00000000
Si      -2.68889256      -2.73641768       0.02248926       0.00000000
Si       2.71477737       2.71529865      -0.02036879       0.00000000
Si       2.71016730      -0.00037467       2.72724272       0.00000000
Si      -0.00364896      -2.71541366       2.72820190       0.00000000
