10
Lattice="16.28999089631971 0.0 0.0 0.0 16.28999089631971 0.0 0.0 0.0 34.25627252547053" Properties=species:S:1:pos:R:3:initial_magmoms:R:1 pbc="T T T"
Si      -1.75332528      -1.11783187       1.16570735       0.00000000
Si      -1.42395777       1.24451527      -1.61199832       0.00000000
Si       1.25706672      -1.45172800      -1.60891525       0.00000000
Si       1.61429013       1.21642806       1.56698555       0.00000000
Si       2.56718997       2.59870623      -0.15154983       0.00000000
Si      -2.75084343       2.45631534      -0.07546661       0.00000000
Si      -3.37351239       0.58465787       1.41779940       0.00000000
Si       2.58737328      -2.86117138      -0.25359933       0.00000000
Si      -0.15698673       0.04861376       3.92001597       0.00000000
Si      -1.67503554       1.66550100       3.13962339       0.00000000
