10
Lattice="16.28999089631971 0.0 0.0 0.0 16.28999089631971 0.0 0.0 0.0 34.25627252547053" Properties=species:S:1:pos:R:3:initial_magmoms:R:1 pbc="T T T"
Si       1.62600264      -1.60024815      -0.53011611       0.00000000
Si      -2.24031483      -0.67258152      -0.25233184       0.00000000
Si      -0.15232779       0.10762803       2.37344717       0.00000000
Si       0.23066640       1.68551001      -1.68003131       0.00000000
Si      -1.88905356       2.78875026      -1.10322387       0.00000000
Si      -2.17365615       1.20386358       2.60899343       0.00000000
Si       3.58104699      -0.40075029      -0.18416182       0.00000000
Si      -1.69288938       3.03121062       1.26179625       0.00000000
Si       3.17097882       0.67966767       1.93256869       0.00000000
Si       2.33715888       2.69205282      -1.28985215       0.00000000
