10
Lattice="16.28999089631971 0.0 0.0 0.0 16.28999089631971 0.0 0.0 0.0 34.25627252547053" Properties=species:S:1:pos:R:3:initial_magmoms:R:1 pbc="T T T"
Si      -2.24145513       0.19837962      -0.43584280       0.00000000
Si       1.23378831       1.79694990       0.81893091       0.00000000
Si       1.16712963      -0.07949520      -2.04239437       0.00000000
Si      -0.09322767      -2.02762770       1.26789387       0.00000000
Si      -2.35884087      -2.07645535      -1.09472831       0.00000000
Si       3.25511667       0.70071435       0.58338465       0.00000000
Si      -2.79901296       1.51032735       1.42221846       0.00000000
Si       0.96405849      -3.32678357      -0.48681616       0.00000000
Si      -2.15285382       1.48385610      -2.40112625       0.00000000
Si       0.91341288      -2.29058577      -2.67538212       0.00000000
