10
Lattice="16.28999089631971 0.0 0.0 0.0 16.28999089631971 0.0 0.0 0.0 34.25627252547053" Properties=species:S:1:pos:R:3:initial_magmoms:R:1 pbc="T T T"
Si       1.32406749       0.45784837       1.90927442       0.00000000
Si       0.09322767       2.02762770      -1.26789387       0.00000000
Si       1.05728616      -1.29915586      -1.75471003       0.00000000
Si      -2.06228142      -0.93785995       0.91450596       0.00000000
Si      -2.26561320      -0.04882765      -2.36262218       0.00000000
Si       3.28504140       0.55001230       0.27867493       0.00000000
Si      -2.14822746       2.22600732      -1.70373667       0.00000000
Si       2.03251959      -1.71362233       2.51221941       0.00000000
Si      -3.42052533      -1.54765981      -0.91450596       0.00000000
Si       3.41979228      -1.43644798      -1.08907602       0.00000000
