10
Lattice="16.28999089631971 0.0 0.0 0.0 16.28999089631971 0.0 0.0 0.0 34.25627252547053" Properties=species:S:1:pos:R:3:initial_magmoms:R:1 pbc="T T T"
Si      -1.35029439      -1.36399428       1.38065873       0.00000000
Si       1.36502055       1.34949618       1.38483800       0.00000000
Si       1.24103736      -1.48916664      -1.37540381       0.00000000
Si      -1.32396975       1.53608184      -1.47582613       0.00000000
Si       2.47612887      -0.11288970      -2.83164703       0.00000000
Si       2.71551042       2.68420104       0.01913899       0.00000000
Si      -2.70518256       2.71106325       0.01533997       0.00000000
Si      -2.69273700      -2.73900060       0.00995145       0.00000000
Si       0.00685809       2.70392823       2.74152417       0.00000000
Si      -2.70791928      -0.00957852       2.74087330       0.00000000
