10
Lattice="16.28999089631971 0.0 0.0 0.0 16.28999089631971 0.0 0.0 0.0 34.25627252547053" Properties=species:S:1:pos:R:3:initial_magmoms:R:1 pbc="T T T"
Si       1.13777505      -1.61751555      -1.20808238       0.00000000
Si       0.32731497       1.77181443      -1.49453349       0.00000000
Si      -2.34522243       0.18396297       0.30789555       0.00000000
Si       0.97560810      -0.38894004       2.21223706       0.00000000
Si      -0.14314023       1.51024590       3.08022298       0.00000000
Si       3.33179370      -0.66603294      -0.76175716       0.00000000
Si       0.65700828      -3.44486259       0.13911480       0.00000000
Si      -2.31358725       0.83647521       2.55942458       0.00000000
Si       2.64767886       1.22448672      -2.06325645       0.00000000
Si       0.37295955      -2.71767699       2.31791772       0.00000000
