10
Lattice="16.28999089631971 0.0 0.0 0.0 16.28999089631971 0.0 0.0 0.0 34.25627252547053" Properties=species:S:1:pos:R:3:initial_magmoms:R:1 pbc="T T T"
Si       1.35180936       1.35607734      -1.33647496       0.00000000
Si       1.35443205      -1.35630540       1.35737130       0.00000000
Si      -1.35988920       1.35645201       1.35672043       0.00000000
Si      -1.36673100      -1.37896479      -1.36432875       0.00000000
Si       2.59035435      -0.03904713      -2.70931641       0.00000000
Si      -0.02712285       2.68568343      -2.65348550       0.00000000
Si       2.71094922       2.71529865       0.00246645       0.00000000
Si       2.71243161       0.00034209       2.71532496       0.00000000
Si      -0.00234576      -2.71489140       2.71484537       0.00000000
Si       2.71340901      -2.71637379      -0.00390522       0.00000000
