10
Lattice="16.28999089631971 0.0 0.0 0.0 16.28999089631971 0.0 0.0 0.0 34.25627252547053" Properties=species:S:1:pos:R:3:initial_magmoms:R:1 pbc="T T T"
Si       1.13922486       1.94566131       0.60678169       0.00000000
Si      -0.32320989       0.01725111      -2.31850008       0.00000000
Si       0.68411484      -1.89051966       1.30149929       0.00000000
Si      -2.32036389       0.54732771       0.56872295       0.00000000
Si      -1.50990381      -2.84200227       0.85517407       0.00000000
Si      -0.36069318       2.37125385      -2.45761488       0.00000000
Si      -0.34194339       3.52748547      -0.37329081       0.00000000
Si      -2.64767886      -1.22448672       2.06325645       0.00000000
Si       1.56628350       1.64669094       2.88170777       0.00000000
Si       1.67949900      -0.74740149       3.18638323       0.00000000
