10
Lattice="16.28999089631971 0.0 0.0 0.0 16.28999089631971 0.0 0.0 0.0 34.25627252547053" Properties=species:S:1:pos:R:3:initial_magmoms:R:1 pbc="T T T"
Si       0.02870298      -0.18179640      -2.31497168       0.00000000
Si       1.89227898      -0.69825456       1.30557579       0.00000000
Si      -1.90206927      -0.80094672       1.24442831       0.00000000
Si      -2.31572124       1.09498122       2.67380633       0.00000000
Si      -3.56439861      -1.44876744      -0.55923396       0.00000000
Si       1.92976227      -3.05225730       1.44469059       0.00000000
Si       1.91102877       0.45797706       3.38989985       0.00000000
Si      -1.47530385      -2.92685688       2.37957904       0.00000000
Si       1.19814579       1.36575360      -3.62380181       0.00000000
Si       4.01098896      -0.60616719       0.08392791       0.00000000
