10
Lattice="16.28999089631971 0.0 0.0 0.0 16.28999089631971 0.0 0.0 0.0 34.25627252547053" Properties=species:S:1:pos:R:3:initial_magmoms:R:1 pbc="T T T"
Si       0.33407532       0.53924787      -2.24077255       0.00000000
Si       1.33066494      -1.10548827       1.61556097       0.00000000
Si      -1.92766086       0.96818705       0.98092891       0.00000000
Si       2.50111773       0.80556561      -0.59510030       0.00000000
Si       2.19237336       2.25161099       1.33613240       0.00000000
Si       0.04144176      -3.03743340       1.89957989       0.00000000
Si      -3.41580123       0.78012828      -0.94050649       0.00000000
Si      -1.87701525      -0.06801075       3.16949487       0.00000000
Si       3.54517641      -1.27798308       0.64552556       0.00000000
Si       0.48549087      -0.20530287       3.83512888       0.00000000
