10
Lattice="16.28999089631971 0.0 0.0 0.0 16.28999089631971 0.0 0.0 0.0 34.25627252547053" Properties=species:S:1:pos:R:3:initial_magmoms:R:1 pbc="T T T"
Si      -1.46583936      -1.17318951       1.42322015       0.00000000
Si      -1.63820385       1.02954429      -1.38378290       0.00000000
Si       1.28557422       1.52948439       1.35770500       0.00000000
Si       1.21987665      -1.89939771      -1.84733904       0.00000000
Si      -2.37099321      -1.32732549      -1.92373057       0.00000000
Si       0.65777391      -0.04675230      -3.44433310       0.00000000
Si      -0.16364934       2.13307776      -2.87636379       0.00000000
Si      -0.10322973      -2.49219081       2.75644762       0.00000000
Si      -2.64821643       2.70102861      -0.00078789       0.00000000
Si       2.61065169       0.23708466       2.76180873       0.00000000
