10
Lattice="16.28999089631971 0.0 0.0 0.0 16.28999089631971 0.0 0.0 0.0 34.25627252547053" Properties=species:S:1:pos:R:3:initial_magmoms:R:1 pbc="T T T"
Si      -1.35581507       1.35630540      -1.35754258       0.00000000
Si       1.35747828       1.35602847       1.35743981       0.00000000
Si       1.35764118      -1.35760860      -1.35750833       0.00000000
Si      -1.35605291      -1.35870003       1.35809068       0.00000000
Si       0.00161271      -2.71453302       2.71299553       0.00000000
Si      -0.00013032      -2.71484253      -2.71368066       0.00000000
Si      -2.71452071       2.71420722       0.00003426       0.00000000
Si      -0.00003258       2.71441899      -2.71443430       0.00000000
Si      -2.71350798      -0.00035838      -2.71587306       0.00000000
Si       2.71521720       2.71453302      -0.00006851       0.00000000
