10
Lattice="16.28999089631971 0.0 0.0 0.0 16.28999089631971 0.0 0.0 0.0 34.25627252547053" Properties=species:S:1:pos:R:3:initial_magmoms:R:1 pbc="T T T"
Si      -0.07019361      -0.83118422      -2.21946514       0.00000000
Si       2.28086783      -0.05038497       0.88494278       0.00000000
Si      -1.68199137      -1.35151940       1.18331508       0.00000000
Si       0.43282530       2.90033187       1.82305133       0.00000000
Si       0.69277446       1.14852156      -3.34598329       0.00000000
Si       1.67880572      -0.26832725       3.19217254       0.00000000
Si       1.92358251       2.50832931      -1.78324552       0.00000000
Si      -0.03569139       1.29402384       3.46050207       0.00000000
Si      -1.99073574       0.09452598       3.11454778       0.00000000
Si       1.71502327      -2.46335329      -2.20041864       0.00000000
