10
Lattice="16.28999089631971 0.0 0.0 0.0 16.28999089631971 0.0 0.0 0.0 34.25627252547053" Properties=species:S:1:pos:R:3:initial_magmoms:R:1 pbc="T T T"
Si       0.07019361       0.83118422       2.21946514       0.00000000
Si       0.76296807       1.97970578      -1.12651815       0.00000000
Si       1.78521688      -1.63216908       0.01904650       0.00000000
Si      -2.01056067      -0.81703377      -1.06965271       0.00000000
Si      -0.65469510      -2.08755603      -2.48902790       0.00000000
Si       2.06770014       0.65655542      -2.51095192       0.00000000
Si       0.66961594      -3.54044484      -0.92375516       0.00000000
Si       3.48784280      -0.64493315      -1.16611842       0.00000000
Si      -1.61179776      -0.52033518       3.40278022       0.00000000
Si       1.99377612       3.33951353       0.43621962       0.00000000
