10
Lattice="16.28999089631971 0.0 0.0 0.0 16.28999089631971 0.0 0.0 0.0 34.25627252547053" Properties=species:S:1:pos:R:3:initial_magmoms:R:1 pbc="T T T"
Si       0.33995601       0.24431742       2.25875710       0.00000000
Si      -0.11150505       2.19972015      -0.78152304       0.00000000
Si       1.56139650      -1.36819710      -1.07842232       0.00000000
Si      -1.96331967      -0.54361196      -1.19006357       0.00000000
Si      -1.90001673       1.63471779      -2.15324773       0.00000000
Si       0.60530382      -3.29392664      -0.05614606       0.00000000
Si      -2.84623767       1.62841356       0.96722640       0.00000000
Si       2.65117048       0.78182226       2.15030168       0.00000000
Si       0.49886496      -1.59633953      -3.23019702       0.00000000
Si       1.42328988       2.20675743      -2.59412620       0.00000000
