10
Lattice="16.28999089631971 0.0 0.0 0.0 16.28999089631971 0.0 0.0 0.0 34.25627252547053" Properties=species:S:1:pos:R:3:initial_magmoms:R:1 pbc="T T T"
Si       1.35717455      -1.35679410       1.35771386       0.00000000
Si      -1.35796698       1.35835794       1.35774812       0.00000000
Si       1.35797293       1.35834165      -1.35812494       0.00000000
Si      -1.35974259      -1.35852084      -1.35737130       0.00000000
Si       2.71435124      -2.71387653      -0.00006851       0.00000000
Si      -0.00009774      -2.71497774       2.71450281       0.00000000
Si       0.00314397      -2.71368757      -2.71590732       0.00000000
Si      -0.00032580       2.71523349       2.71460558       0.00000000
Si      -2.71536381      -2.71460144       0.00051384       0.00000000
Si       2.71711403      -0.00428427      -2.71340661       0.00000000
