10
Lattice="16.28999089631971 0.0 0.0 0.0 16.28999089631971 0.0 0.0 0.0 34.25627252547053" Properties=species:S:1:pos:R:3:initial_magmoms:R:1 pbc="T T T"
Si       2.10649248       1.00654281       0.39017916       0.00000000
Si      -0.23066640      -1.68551001       1.68003131       0.00000000
Si      -2.11971996       1.10324025       0.57680744       0.00000000
Si       2.18642751       1.05065613       2.71070036       0.00000000
Si      -3.60860967      -0.71179155       0.16621153       0.00000000
Si      -2.47098123      -2.35809153       1.42769947       0.00000000
Si       1.39533624      -3.28575816       1.14991520       0.00000000
Si      -1.92355578       1.34570061       2.94182756       0.00000000
Si       3.81889728      -0.47995227      -0.14158125       0.00000000
Si       0.27046287       2.29718322       3.38815278       0.00000000
