10
Lattice="16.28999089631971 0.0 0.0 0.0 16.28999089631971 0.0 0.0 0.0 34.25627252547053" Properties=species:S:1:pos:R:3:initial_magmoms:R:1 pbc="T T T"
Si      -0.41295150      -1.41439554       1.88166385       0.00000000
Si       2.22853716       0.86107311       0.15792150       0.00000000
Si      -1.19821095       2.07583470      -0.18786150       0.00000000
Si       0.02031363      -1.50524487      -1.91023359       0.00000000
Si      -2.71441899      -2.07655146      -0.16148416       0.00000000
Si      -0.11935683       2.94793614      -2.06240004       0.00000000
Si       2.16621162       2.30542596      -1.79468712       0.00000000
Si       3.47248947      -1.06297137      -0.26973404       0.00000000
Si       0.47177469      -3.46064760       1.13004655       0.00000000
Si       0.13181868      -3.70496502      -1.12871055       0.00000000
