10
Lattice="16.28999089631971 0.0 0.0 0.0 16.28999089631971 0.0 0.0 0.0 34.25627252547053" Properties=species:S:1:pos:R:3:initial_magmoms:R:1 pbc="T T T"
Si       1.23854499      -1.39512447      -1.37284144       0.00000000
Si      -1.37893221       1.32960609      -1.31701054       0.00000000
Si      -1.35180936      -1.35607734       1.33647496       0.00000000
Si       1.35913986       1.35922131       1.33894142       0.00000000
Si       0.42757992       2.14537671      -2.58689744       0.00000000
Si      -0.71770482      -2.13529320      -2.66461229       0.00000000
Si       2.29019481       0.13719438      -2.75267943       0.00000000
Si      -2.49785973      -0.29691783      -2.64561341       0.00000000
Si      -2.71169856       0.00037467       2.69319539       0.00000000
Si       0.00262269      -2.71238274       2.69384626       0.00000000
