10
Lattice="16.28999089631971 0.0 0.0 0.0 16.28999089631971 0.0 0.0 0.0 34.25627252547053" Properties=species:S:1:pos:R:3:initial_magmoms:R:1 pbc="T T T"
Si      -1.29311649       1.38354228      -1.39717711       0.00000000
Si      -0.49526487      -1.95481629       1.23463101       0.00000000
Si       1.44762714      -1.30831506      -1.38549572       0.00000000
Si       0.67204395       1.79571186       1.48117354       0.00000000
Si      -2.58864390      -2.73585663       0.11140146       0.00000000
Si       0.13776453       0.74267739       3.69615110       0.00000000
Si      -2.63090016       0.03376917      -2.75495949       0.00000000
Si      -2.67507864       2.71459818      -0.01157863       0.00000000
Si       2.77889401       2.62971099       0.18090748       0.00000000
Si       0.08096130      -2.68104078      -2.75187642       0.00000000
