10
Lattice="16.28999089631971 0.0 0.0 0.0 16.28999089631971 0.0 0.0 0.0 34.25627252547053" Properties=species:S:1:pos:R:3:initial_magmoms:R:1 pbc="T T T"
Si      -0.67204395      -1.79571186      -1.48117354       0.00000000
Si      -1.61833005       1.90330731      -0.14767887       0.00000000
Si      -0.53427942      -1.05303447       2.21497756       0.00000000
Si       2.10685006       0.83399913      -1.30026606       0.00000000
Si      -1.96516044      -0.41216958      -2.87835065       0.00000000
Si       0.78253902       2.28688794      -2.86553880       0.00000000
Si      -3.34712259       0.91888632      -1.49275217       0.00000000
Si       1.24434423      -0.48772260       3.60828371       0.00000000
Si      -0.57332655       3.55741020      -1.44616361       0.00000000
Si      -1.16730882      -3.75052815      -0.24654253       0.00000000
