10
Lattice="16.28999089631971 0.0 0.0 0.0 16.28999089631971 0.0 0.0 0.0 34.25627252547053" Properties=species:S:1:pos:R:3:initial_magmoms:R:1 pbc="T T T"
Si      -2.00120369      -1.04024682      -0.63891410       0.00000000
Si       1.67231511       0.59093604      -1.54396532       0.00000000
Si      -0.78947042       2.19168918       0.33071024       0.00000000
Si      -0.28737189      -1.93854258       1.60069374       0.00000000
Si       1.15455375       3.29828517       1.22017485       0.00000000
Si       2.09365596       2.90976867      -1.00134566       0.00000000
Si       1.78590528      -0.70397235       3.22468176       0.00000000
Si      -2.11529397      -3.06941230       0.56677035       0.00000000
Si       0.83657295       0.37085814      -3.74058151       0.00000000
Si       3.67767927      -0.59025186      -1.16642673       0.00000000
