10
Lattice="16.28999089631971 0.0 0.0 0.0 16.28999089631971 0.0 0.0 0.0 34.25627252547053" Properties=species:S:1:pos:R:3:initial_magmoms:R:1 pbc="T T T"
Si       1.34715205       1.32646212      -1.37695220       0.00000000
Si       1.35409159      -1.35830907       1.35589828       0.00000000
Si      -1.36110468       1.35563751       1.35535018       0.00000000
Si      -1.35706030      -1.36361961      -1.38248459       0.00000000
Si      -0.16737323       2.56459986      -2.69028361       0.00000000
Si       2.71194454      -0.00117288       2.71299553       0.00000000
Si      -0.00315212       2.71412577       2.71302979       0.00000000
Si      -0.00169090      -2.71642266       2.71278999       0.00000000
Si       2.71124407      -2.71805166      -0.00270625       0.00000000
Si       2.71442062       2.71503801      -0.00623465       0.00000000
