10
Lattice="16.28999089631971 0.0 0.0 0.0 16.28999089631971 0.0 0.0 0.0 34.25627252547053" Properties=species:S:1:pos:R:3:initial_magmoms:R:1 pbc="T T T"
Si      -1.35409159       1.35830907      -1.35589828       0.00000000
Si      -1.35578249      -1.35811359       1.35689171       0.00000000
Si       1.35785295       1.35713619       1.35709725       0.00000000
Si       1.35715248      -1.35974259      -1.35860453       0.00000000
Si      -0.00693954       2.68477119      -2.73285048       0.00000000
Si      -2.71347540      -2.71477737      -0.00143876       0.00000000
Si       0.00003258      -2.71441899       2.71443430       0.00000000
Si      -2.71448813      -0.00021177       2.71446855       0.00000000
Si      -2.71519627       2.71394658      -0.00054810       0.00000000
Si       2.71524978       0.00011403       2.71436578       0.00000000
