10
Lattice="16.28999089631971 0.0 0.0 0.0 16.28999089631971 0.0 0.0 0.0 34.25627252547053" Properties=species:S:1:pos:R:3:initial_magmoms:R:1 pbc="T T T"
Si       1.35413883      -1.35764118      -1.36069416       0.00000000
Si      -1.36113701       1.35830907      -1.36072842       0.00000000
Si      -1.37409734      -1.35852084       1.35391142       0.00000000
Si       1.35436689       1.37678193       1.37696590       0.00000000
Si       2.70739800       2.71634121      -0.00232943       0.00000000
Si       2.71210581      -2.71406061       0.00116471       0.00000000
Si       2.71187775       0.00086337      -2.71820249       0.00000000
Si      -2.71881948      -2.71168227      -0.00298030       0.00000000
Si      -2.71649929       2.71476108      -0.00171281       0.00000000
Si      -0.00333945      -2.71366965      -2.71813398       0.00000000
