10
Lattice="16.28999089631971 0.0 0.0 0.0 16.28999089631971 0.0 0.0 0.0 34.25627252547053" Properties=species:S:1:pos:R:3:initial_magmoms:R:1 pbc="T T T"
Si       1.35699935       1.35773403      -1.35586402       0.00000000
Si      -1.35717669       1.35708243       1.35778238       0.00000000
Si      -1.35827506      -1.35853139      -1.35696023       0.00000000
Si       1.35838400      -1.35816137       1.35809068       0.00000000
Si       0.00276278       2.70959226      -2.71333809       0.00000000
Si       2.70889016       0.00466546      -2.71724331       0.00000000
Si      -2.71120727       0.00018896      -2.71583880       0.00000000
Si      -2.71435124       2.71387653       0.00006851       0.00000000
Si      -2.71444898      -0.00110120       2.71457132       0.00000000
Si      -0.00033232      -2.71465912       2.71446855       0.00000000
