10
Lattice="16.28999089631971 0.0 0.0 0.0 16.28999089631971 0.0 0.0 0.0 34.25627252547053" Properties=species:S:1:pos:R:3:initial_magmoms:R:1 pbc="T T T"
Si       1.35742289       1.35711990      -1.35733704       0.00000000
Si      -1.35748425       1.35742941       1.35723428       0.00000000
Si       1.35807449      -1.35721764       1.35743981       0.00000000
Si      -1.35795256      -1.35848826      -1.35767961       0.00000000
Si       0.00315212      -2.71412577      -2.71302979       0.00000000
Si      -2.71645265       0.00027693      -2.71224189       0.00000000
Si       2.71592744      -0.00057015       2.71333809       0.00000000
Si      -0.00052128      -2.71487511       2.71470835       0.00000000
Si      -2.71497026      -2.71467963       0.00061661       0.00000000
Si      -2.71550783       0.00063531       2.71422876       0.00000000
