10
Lattice="16.28999089631971 0.0 0.0 0.0 16.28999089631971 0.0 0.0 0.0 34.25627252547053" Properties=species:S:1:pos:R:3:initial_magmoms:R:1 pbc="T T T"
Si      -1.35783666       1.35586557      -1.35918688       0.00000000
Si       1.36301688       1.33995024       1.37278663       0.00000000
Si       1.35827649      -1.36060596      -1.35980350       0.00000000
Si      -1.35565054      -1.37510406       1.39234697       0.00000000
Si       2.71036278      -2.71687878      -0.00003426       0.00000000
Si       0.00087966       2.71236332      -2.71556475       0.00000000
Si      -2.71638098       2.71166631       0.00263773       0.00000000
Si       2.71816569       2.71068376       0.00154153       0.00000000
Si       2.71485882      -0.00211770      -2.71604434       0.00000000
Si      -2.71513520      -0.00260640      -2.71590732       0.00000000
