10
Lattice="16.28999089631971 0.0 0.0 0.0 16.28999089631971 0.0 0.0 0.0 34.25627252547053" Properties=species:S:1:pos:R:3:initial_magmoms:R:1 pbc="T T T"
Si      -1.35067511      -1.11233007      -1.54838438       0.00000000
Si       1.62149145      -1.53554427       0.78649020       0.00000000
Si       0.96606330       2.05441076      -0.78015279       0.00000000
Si      -2.08292690       0.89408286       0.96883644       0.00000000
Si      -1.02039536       1.12222529       3.12061115       0.00000000
Si       0.33081846      -3.35090187       1.53615489       0.00000000
Si      -2.70347816       2.41726400      -0.85777754       0.00000000
Si      -0.74843381       3.61676186      -0.51182325       0.00000000
Si      -3.56518658      -0.93983526      -0.57834897       0.00000000
Si      -2.39473379       0.97121862      -2.78901024       0.00000000
