10
Lattice="10.86 0.0 0.0 0.0 10.86 0.0 0.0 0.0 10.86" Properties=species:S:1:pos:R:3:initial_magmoms:R:1 pbc="T T T"
Si       1.35750000       1.35750000       1.35750000       0.00000000
Si      -1.35750000      -1.35750000       1.35750000       0.00000000
Si      -1.35750000       1.35750000      -1.35750000       0.00000000
Si       1.35750000      -1.35750000      -1.35750000       0.00000000
Si       2.57215842       2.54695236      -0.22636584       0.00000000
Si       0.18190500       2.44071984       2.79292050       0.00000000
Si      -2.50405536       2.74920900       0.00826446       0.00000000
Si       0.12607374       2.66775900      -2.61140646       0.00000000
Si       0.17294550      -2.74979544      -2.56785786       0.00000000
Si      -2.71500000       0.00000000       2.71500000       0.00000000
