10
Lattice="10.86 0.0 0.0 0.0 10.86 0.0 0.0 0.0 10.86" Properties=species:S:1:pos:R:3:initial_magmoms:R:1 pbc="T T T"
Si       1.26409314       1.40222148       1.27841748       0.00000000
Si      -1.45090686      -1.31277852       1.27841748       0.00000000
Si      -1.45090686       1.40222148      -1.43658252       0.00000000
Si       2.51305830      -0.15285450      -2.58718866       0.00000000
Si       2.62159314       0.04472148       2.63591748       0.00000000
Si      -0.09340686      -2.67027852       2.63591748       0.00000000
Si       2.62159314       2.75972148      -0.07908252       0.00000000
Si       2.70318432      -2.68423362      -0.08188440       0.00000000
Si      -0.09340686       2.75972148       2.63591748       0.00000000
Si      -2.80840686       0.04472148       2.63591748       0.00000000
