10
Lattice="10.86 0.0 0.0 0.0 10.86 0.0 0.0 0.0 10.86" Properties=species:S:1:pos:R:3:initial_magmoms:R:1 pbc="T T T"
Si       1.23142626      -1.31025900      -1.46109354       0.00000000
Si      -1.48357374      -1.31025900       1.25390646       0.00000000
Si      -1.48357374       1.40474100      -1.46109354       0.00000000
Si       2.27859090       2.50804098      -0.22623552       0.00000000
Si       2.44608468      -0.12080664       2.38504062       0.00000000
Si      -2.63012910       0.08145000       2.61967092       0.00000000
Si       2.58892626      -2.66775900      -0.10359354       0.00000000
Si      -0.12607374      -2.66775900       2.61140646       0.00000000
Si       2.58892626       0.04724100      -2.81859354       0.00000000
Si      -0.12607374      -2.66775900      -2.81859354       0.00000000
