10
Lattice="10.86 0.0 0.0 0.0 10.86 0.0 0.0 0.0 10.86" Properties=species:S:1:pos:R:3:initial_magmoms:R:1 pbc="T T T"
Si      -1.12474848      -1.36676358       1.42018392       0.00000000
Si       1.59025152      -1.36676358      -1.29481608       0.00000000
Si       1.59025152       1.34823642       1.42018392       0.00000000
Si      -1.27485540       1.71517410      -1.58236716       0.00000000
Si      -2.48224848      -2.72426358       0.06268392       0.00000000
Si      -2.68997856       0.12844122      -2.52279972       0.00000000
Si      -2.48224848      -0.00926358       2.77768392       0.00000000
Si       0.23275152      -2.72426358      -2.65231608       0.00000000
Si      -2.49640992       2.87907288      -0.05350722       0.00000000
Si       0.23275152       2.70573642       2.77768392       0.00000000
