10
Lattice="10.86 0.0 0.0 0.0 10.86 0.0 0.0 0.0 10.86" Properties=species:S:1:pos:R:3:initial_magmoms:R:1 pbc="T T T"
Si       1.43662596      -1.55456556      -0.97867062       0.00000000
Si       1.43662596       1.16043444       1.73632938       0.00000000
Si      -1.27837404      -1.55456556       1.73632938       0.00000000
Si       0.07998390       2.38826604      -2.23127388       0.00000000
Si       2.79412596      -0.19706556      -2.33617062       0.00000000
Si      -2.80384566      -0.11648436      -2.41587216       0.00000000
Si       0.07912596      -2.91206556      -2.33617062       0.00000000
Si       2.79412596       2.51793444       0.37882938       0.00000000
Si      -2.63587404      -2.91206556       0.37882938       0.00000000
Si       0.03656562       2.59722330       2.97178470       0.00000000
