10
Lattice="10.86 0.0 0.0 0.0 10.86 0.0 0.0 0.0 10.86" Properties=species:S:1:pos:R:3:initial_magmoms:R:1 pbc="T T T"
Si      -1.18952838       1.27691880      -1.27779846       0.00000000
Si      -1.18952838      -1.43808120       1.43720154       0.00000000
Si       1.52547162      -1.43808120      -1.27779846       0.00000000
Si      -2.16760170       2.83787004       0.21342072       0.00000000
Si      -2.54702838      -0.08058120      -2.63529846       0.00000000
Si       2.80384566       0.11648436       2.41587216       0.00000000
Si       0.16797162       2.63441880      -2.63529846       0.00000000
Si      -2.54702838      -2.79558120       0.07970154       0.00000000
Si       2.88382956       2.50475040       0.18459828       0.00000000
Si       0.16797162      -2.79558120      -2.63529846       0.00000000
