10
Lattice="16.28999089631971 0.0 0.0 0.0 16.28999089631971 0.0 0.0 0.0 34.45770212530097" Properties=species:S:1:pos:R:3:initial_magmoms:R:1 pbc="T T T"
Si      -1.23377528      -0.95053779       1.84087762       0.00000000
Si       0.26077032       2.21587983      -1.17680010       0.00000000
Si      -1.04669603      -2.01313449      -1.15323102       0.00000000
Si       1.45132497       1.61160228       1.87382954       0.00000000
Si      -2.97309509      -1.95763446       0.48881724       0.00000000
Si       2.15243028       3.31914519       0.37651952       0.00000000
Si      -0.99207729      -1.35931905      -3.71340526       0.00000000
Si       0.08832438      -2.47617774       3.29192328       0.00000000
Si      -2.61981386       0.23798061       3.31932750       0.00000000
Si      -1.65704323       3.72379693      -1.21401444       0.00000000
