10
Lattice="16.28999089631971 0.0 0.0 0.0 16.28999089631971 0.0 0.0 0.0 34.45770212530097" Properties=species:S:1:pos:R:3:initial_magmoms:R:1 pbc="T T T"
Si      -1.09980306       1.27508346       1.68463800       0.00000000
Si       1.88392221      -1.13510349       0.91636864       0.00000000
Si      -1.68262668      -1.49260383      -0.86792109       0.00000000
Si       0.53118432       1.67804919      -1.81189036       0.00000000
Si      -1.12410774       3.05378856      -0.58454079       0.00000000
Si       2.90069514       0.68791041       2.01136611       0.00000000
Si      -0.09407475       3.37263273       1.77719144       0.00000000
Si       1.11744513      -2.79715916       2.37468833       0.00000000
Si      -1.57436334      -0.15791526       3.50448810       0.00000000
Si      -3.56502903       0.13613553      -1.44126311       0.00000000
