10
Lattice="16.28999089631971 0.0 0.0 0.0 16.28999089631971 0.0 0.0 0.0 34.45770212530097" Properties=species:S:1:pos:R:3:initial_magmoms:R:1 pbc="T T T"
Si      -0.73529802       1.81371231      -1.30870426       0.00000000
Si       2.21926815      -0.50005413      -0.63888061       0.00000000
Si      -1.37072205      -1.94533551      -0.35091743       0.00000000
Si       0.59921136       1.06267815       2.13152019       0.00000000
Si       2.93369868       1.67702292      -0.26653047       0.00000000
Si       1.19957931       3.12350976      -0.86368279       0.00000000
Si      -0.09738162      -3.25932668       1.17201048       0.00000000
Si      -2.66820426       2.55474441      -0.07811565       0.00000000
Si      -0.48619134      -0.19904751       3.74769069       0.00000000
Si      -3.64407626      -1.14114708      -0.08542069       0.00000000
