10
Lattice="16.28999089631971 0.0 0.0 0.0 16.28999089631971 0.0 0.0 0.0 34.45770212530097" Properties=species:S:1:pos:R:3:initial_magmoms:R:1 pbc="T T T"
Si      -0.79086321      -1.78818588      -1.34124755       0.00000000
Si      -1.41525891       1.30279275       1.38924229       0.00000000
Si       1.33362972      -1.39553172       1.38253337       0.00000000
Si       0.59750091       1.96646364      -1.25436271       0.00000000
Si       0.19859139       1.15769772      -3.42866185       0.00000000
Si      -2.24072208       0.88011612      -2.90755773       0.00000000
Si      -2.66644494      -2.67259279       0.00535473       0.00000000
Si       2.61304632       2.74914927      -0.08985195       0.00000000
Si      -0.03779280       2.66615172       2.75448133       0.00000000
Si       2.67485058      -0.04968450       2.75730686       0.00000000
