10
Lattice="16.28999089631971 0.0 0.0 0.0 16.28999089631971 0.0 0.0 0.0 34.45770212530097" Properties=species:S:1:pos:R:3:initial_magmoms:R:1 pbc="T T T"
Si      -1.36301688      -1.35309627      -1.38003174       0.00000000
Si       1.35601218       1.36265850      -1.38168571       0.00000000
Si      -1.35070164       1.33773480       1.48481767       0.00000000
Si       1.22891760      -1.61850924       1.34574631       0.00000000
Si       2.69475696       2.71702539       0.01185346       0.00000000
Si      -2.70050733      -2.72468169      -0.01398983       0.00000000
Si      -2.72455137       2.70102861      -0.01474790       0.00000000
Si      -0.00278559      -2.71296918      -2.74052595       0.00000000
Si       2.71290402       0.00140094      -2.74238667       0.00000000
Si      -0.00459378       2.71547784      -2.74155969       0.00000000
