10
Lattice="16.28999089631971 0.0 0.0 0.0 16.28999089631971 0.0 0.0 0.0 34.45770212530097" Properties=species:S:1:pos:R:3:initial_magmoms:R:1 pbc="T T T"
Si       0.39890952       0.80876592       2.17429914       0.00000000
Si       0.66020112      -2.25860850      -0.43520102       0.00000000
Si      -2.43931347      -0.27758160       0.52110412       0.00000000
Si       0.73055763       1.68513534      -1.76471774       0.00000000
Si      -0.19859139      -1.15769772       3.42866185       0.00000000
Si      -3.22418033       1.73341890      -0.51497065       0.00000000
Si      -1.29526677       2.64557745       2.25619446       0.00000000
Si      -0.98945460      -2.94588360       2.08741430       0.00000000
Si       0.33215310      -2.59924869      -2.76981502       0.00000000
Si      -3.12225380      -2.17414485      -0.76106769       0.00000000
