10
Lattice="16.28999089631971 0.0 0.0 0.0 16.28999089631971 0.0 0.0 0.0 34.45770212530097" Properties=species:S:1:pos:R:3:initial_magmoms:R:1 pbc="T T T"
Si      -1.19505069      -1.70486253      -1.09049247       0.00000000
Si       1.21629285      -1.47188295       1.47425293       0.00000000
Si      -1.49234319       1.24602210       1.44673155       0.00000000
Si       1.81024254       0.75118077      -1.47845819       0.00000000
Si       2.65168620       2.48401323      -0.11481657       0.00000000
Si      -1.73884347      -0.63881235      -3.20840810       0.00000000
Si       2.51467101      -2.75898843      -0.00787704       0.00000000
Si       0.49912560      -3.54167406      -1.17238779       0.00000000
Si       3.50800263      -0.98930799      -1.17042508       0.00000000
Si       2.57859297      -0.12880503       2.84155599       0.00000000
