10
Lattice="16.28999089631971 0.0 0.0 0.0 16.28999089631971 0.0 0.0 0.0 34.45770212530097" Properties=species:S:1:pos:R:3:initial_magmoms:R:1 pbc="T T T"
Si       0.82803699       1.92054213       1.07711391       0.00000000
Si      -1.21738428       1.32888933      -1.59525467       0.00000000
Si      -1.84362075      -0.96277158       1.37241658       0.00000000
Si       1.46184831      -1.36485765      -1.54901241       0.00000000
Si      -0.45905220      -0.54667611       3.53198536       0.00000000
Si      -2.64258009       2.56484421      -0.26563457       0.00000000
Si      -3.53172087       0.77427999       0.93070305       0.00000000
Si      -2.58361029      -2.74414824      -0.07604819       0.00000000
Si       2.72407896       2.67838551      -0.23300311       0.00000000
Si       0.42852474       1.84757922       3.38343812       0.00000000
