10
Lattice="16.28999089631971 0.0 0.0 0.0 16.28999089631971 0.0 0.0 0.0 34.45770212530097" Properties=species:S:1:pos:R:3:initial_magmoms:R:1 pbc="T T T"
Si      -1.39559688       0.87048873      -1.69314906       0.00000000
Si      -0.58049415      -2.22405741      -0.62440837       0.00000000
Si      -0.92326833       0.56702232       2.12769538       0.00000000
Si       2.26585755       0.68737284       0.43175525       0.00000000
Si      -1.92562461      -2.78593209       1.24140833       0.00000000
Si      -0.55345275       3.09166281      -1.86681597       0.00000000
Si      -2.69342118      -0.90780912       2.38726540       0.00000000
Si       3.48987186      -1.22521977       0.94614011       0.00000000
Si      -3.72446415       0.59569272      -1.05967831       0.00000000
Si       0.77481756       0.75937464       3.76729714       0.00000000
