10
Lattice="16.28999089631971 0.0 0.0 0.0 16.28999089631971 0.0 0.0 0.0 34.45770212530097" Properties=species:S:1:pos:R:3:initial_magmoms:R:1 pbc="T T T"
Si       0.70110531       1.70754291      -1.49731001       0.00000000
Si      -1.37150397       1.31717366       1.44245880       0.00000000
Si       1.36189287      -1.39432626       1.41647078       0.00000000
Si      -1.45132497      -1.61160228      -1.87382954       0.00000000
Si      -1.19055465       0.60427755      -3.05062964       0.00000000
Si      -2.68510025      -2.56214007      -0.03295192       0.00000000
Si       2.68397298       2.62445651       0.00205713       0.00000000
Si      -2.63547765       2.77545829       0.05869184       0.00000000
Si      -0.01039302       2.68527033       2.80712928       0.00000000
Si       2.71034649      -0.03069036       2.80967916       0.00000000
