10
Lattice="16.28999089631971 0.0 0.0 0.0 16.28999089631971 0.0 0.0 0.0 34.45770212530097" Properties=species:S:1:pos:R:3:initial_magmoms:R:1 pbc="T T T"
Si       2.18926197       0.76488622       0.25254064       0.00000000
Si      -2.09425869       1.02984795      -0.14503255       0.00000000
Si      -0.80273862      -1.14552909       2.01329574       0.00000000
Si       0.67820157      -1.45567440      -1.90316887       0.00000000
Si       1.75764213       0.28300617      -3.03999801       0.00000000
Si      -0.34288821      -3.31610643       1.20147183       0.00000000
Si      -3.51018549      -1.03741236      -0.09245007       0.00000000
Si       3.35267748      -1.21122666       1.08796809       0.00000000
Si       2.59426395       2.07750347      -1.71682151       0.00000000
Si       2.11377411      -3.22123347       0.48247701       0.00000000
