10
Lattice="16.28999089631971 0.0 0.0 0.0 16.28999089631971 0.0 0.0 0.0 34.45770212530097" Properties=species:S:1:pos:R:3:initial_magmoms:R:1 pbc="T T T"
Si       1.09576314       0.34828020       2.02576944       0.00000000
Si       0.45985041      -2.17057734      -0.81182392       0.00000000
Si      -2.36118663       0.26313237       0.26604807       0.00000000
Si       0.80273862       1.14552909      -2.01329574       0.00000000
Si      -1.29152007       2.17537704      -2.15832829       0.00000000
Si      -1.66312755      -2.08832913      -2.06953075       0.00000000
Si      -2.70744687       0.10811673      -2.10574581       0.00000000
Si       0.76237200       2.67301374       2.55648726       0.00000000
Si      -2.76905565       2.48441952       1.00561414       0.00000000
Si       2.91651273      -2.07570438      -1.53081873       0.00000000
