10
Lattice="16.28999089631971 0.0 0.0 0.0 16.28999089631971 0.0 0.0 0.0 34.45770212530097" Properties=species:S:1:pos:R:3:initial_magmoms:R:1 pbc="T T T"
Si      -0.45985041       2.17057734       0.81182392       0.00000000
Si       0.25853859      -1.64884122       1.70024735       0.00000000
Si      -2.12297796       0.08224821      -1.25770683       0.00000000
Si       2.45666232       0.09487296      -0.71899481       0.00000000
Si       1.56908538      -2.29938237      -0.57044758       0.00000000
Si       0.34288821       3.31610643      -1.20147183       0.00000000
Si      -1.50358329      -0.97842627      -3.17172988       0.00000000
Si       1.02108978       1.86043203      -3.10464070       0.00000000
Si       2.51545293      -1.27848807       2.51227801       0.00000000
Si      -1.76480973      -1.59744627       3.01673905       0.00000000
