10
Lattice="16.28999089631971 0.0 0.0 0.0 16.28999089631971 0.0 0.0 0.0 34.45770212530097" Properties=species:S:1:pos:R:3:initial_magmoms:R:1 pbc="T T T"
Si      -0.08262288       0.19170072       2.30511819       0.00000000
Si       1.70067600      -1.53640764      -0.52613495       0.00000000
Si       0.28367406       2.23435010      -0.72781599       0.00000000
Si      -1.91896200      -0.66218850      -1.22576452       0.00000000
Si      -0.71809578      -0.07594398      -3.18451369       0.00000000
Si       0.90034830      -3.06647847       1.07280670       0.00000000
Si       1.21710735      -1.55057994      -2.85988750       0.00000000
Si       1.40615280       2.00425059       2.50414599       0.00000000
Si      -1.05148692       2.24878956      -2.65379587       0.00000000
Si      -0.00125433       3.45466007       1.25874056       0.00000000
