10
Lattice="16.28999089631971 0.0 0.0 0.0 16.28999089631971 0.0 0.0 0.0 34.45770212530097" Properties=species:S:1:pos:R:3:initial_magmoms:R:1 pbc="T T T"
Si       1.35780408      -1.35861700       1.36076988       0.00000000
Si      -1.36021500       1.35862510       1.36008072       0.00000000
Si       1.35614250       1.36838281      -1.38115851       0.00000000
Si      -1.37883447      -1.36866733      -1.35966378       0.00000000
Si       2.66822055      -0.08864692      -2.75223469       0.00000000
Si       2.71300176      -2.71354000       0.00585781       0.00000000
Si      -2.71345788      -2.71389838       0.00258433       0.00000000
Si       2.71037907       2.71755319       0.00110265       0.00000000
Si       2.71295289       0.00033720       2.71816289       0.00000000
Si      -0.00161271      -2.71446853       2.71823181       0.00000000
