10
Lattice="16.28999089631971 0.0 0.0 0.0 16.28999089631971 0.0 0.0 0.0 34.45770212530097" Properties=species:S:1:pos:R:3:initial_magmoms:R:1 pbc="T T T"
Si       0.17689311      -2.31785590      -0.09424187       0.00000000
Si      -0.47060181       0.86368603       2.11811613       0.00000000
Si      -1.31533605       1.06882600      -1.62351000       0.00000000
Si       2.30213538       0.48869348      -0.26680614       0.00000000
Si       1.15867512      -0.41672752       3.23964605       0.00000000
Si      -0.57671487      -2.36477110      -2.50948693       0.00000000
Si       3.09602853      -0.24288390       1.87470679       0.00000000
Si       2.24582085       2.82348706      -0.52375737       0.00000000
Si       0.54086058       2.72050168      -2.39942897       0.00000000
Si      -1.74013038      -0.38865822      -3.34491439       0.00000000
