10
Lattice="16.28999089631971 0.0 0.0 0.0 16.28999089631971 0.0 0.0 0.0 34.45770212530097" Properties=species:S:1:pos:R:3:initial_magmoms:R:1 pbc="T T T"
Si      -1.53101565       1.38522015      -1.11250199       0.00000000
Si      -0.51380289      -2.33552662       0.07356724       0.00000000
Si       1.99006785       0.35147304      -1.35153521       0.00000000
Si       0.01510083       0.45789561       2.39946343       0.00000000
Si       1.70364078      -1.06489359       3.00946847       0.00000000
Si       0.92893725      -2.98251655       1.89231469       0.00000000
Si      -3.55583007       1.03167828      -0.12070540       0.00000000
Si       3.59521929       1.14346026       0.12511599       0.00000000
Si      -0.84010788       3.60955449      -0.73450079       0.00000000
Si      -1.78706187       0.52927839      -3.29119480       0.00000000
