10
Lattice="16.28999089631971 0.0 0.0 0.0 16.28999089631971 0.0 0.0 0.0 34.45770212530097" Properties=species:S:1:pos:R:3:initial_magmoms:R:1 pbc="T T T"
Si      -1.35656604       1.35692442      -1.35711736       0.00000000
Si       1.35625653       1.35694071       1.35777205       0.00000000
Si       1.35809730      -1.35786924      -1.35742748       0.00000000
Si      -1.35931905      -1.35913986       1.35753085       0.00000000
Si      -0.00042354      -2.71249677      -2.71478604       0.00000000
Si      -2.71236645       0.00114030       2.71544073       0.00000000
Si      -2.71324611      -0.00053757      -2.71523399       0.00000000
Si      -2.71450044       2.71456560      -0.00020675       0.00000000
Si       0.00128691      -2.71195920       2.71740482       0.00000000
Si       0.00078192       2.71551042      -2.71406242       0.00000000
