10
Lattice="16.28999089631971 0.0 0.0 0.0 16.28999089631971 0.0 0.0 0.0 34.45770212530097" Properties=species:S:1:pos:R:3:initial_magmoms:R:1 pbc="T T T"
Si      -1.36060596       1.35281934      -1.35987397       0.00000000
Si       1.35689184      -1.36125756      -1.36070096       0.00000000
Si       1.33874478       1.35436689       1.39353917       0.00000000
Si      -1.35601218      -1.36265850       1.38168571       0.00000000
Si       2.49756651      -0.22030596       2.82398256       0.00000000
Si      -2.71365336       2.71309950      -0.00196409       0.00000000
Si       2.71665072       2.71179630       0.00213638       0.00000000
Si      -0.00128691       2.71195920      -2.71740482       0.00000000
Si       2.71427238      -0.00320913      -2.71764603       0.00000000
Si      -2.71616202      -0.00307881      -2.71802506       0.00000000
