10
Lattice="16.28999089631971 0.0 0.0 0.0 16.28999089631971 0.0 0.0 0.0 34.45770212530097" Properties=species:S:1:pos:R:3:initial_magmoms:R:1 pbc="T T T"
Si      -1.57959243       1.24102107      -1.18617260       0.00000000
Si       0.55697139      -2.10645990      -0.93376979       0.00000000
Si       2.17603449       0.92900241      -0.52534242       0.00000000
Si      -1.52080182      -0.13233996       2.04510022       0.00000000
Si      -2.46716937      -1.15323426      -1.03762536       0.00000000
Si       2.71588509       0.28632933       1.76881821       0.00000000
Si      -0.34068906       3.25102788      -0.58068152       0.00000000
Si      -1.49174046      -3.14515917      -0.34109698       0.00000000
Si      -0.19311795      -1.75730004       3.29853429       0.00000000
Si      -1.46513889       2.19036969       2.69504176       0.00000000
