10
Lattice="16.28999089631971 0.0 0.0 0.0 16.28999089631971 0.0 0.0 0.0 34.45770212530097" Properties=species:S:1:pos:R:3:initial_magmoms:R:1 pbc="T T T"
Si       0.09624132      -1.08375741       2.06418980       0.00000000
Si      -1.75154967       1.32383943      -0.86519893       0.00000000
Si       1.55621628      -0.67730562      -1.65913928       0.00000000
Si      -1.51542612      -2.23485768       0.85065777       0.00000000
Si       1.22455188       2.20348314       1.34767594       0.00000000
Si      -3.27666834      -0.28880541      -1.72722774       0.00000000
Si      -0.95505012       0.35140788       3.63269532       0.00000000
Si      -2.66685219       2.53395837       1.11077911       0.00000000
Si       3.19645638      -2.16200880      -0.91071758       0.00000000
Si      -1.13842665       2.66905134      -2.76881574       0.00000000
