10
Lattice="16.28999089631971 0.0 0.0 0.0 16.28999089631971 0.0 0.0 0.0 34.45770212530097" Properties=species:S:1:pos:R:3:initial_magmoms:R:1 pbc="T T T"
Si       1.35527668      -1.35503362      -1.35608362       0.00000000
Si      -1.35785769      -1.35641827       1.35684169       0.00000000
Si       1.35699854       1.35863507       1.35687615       0.00000000
Si      -1.35476259       1.35660696      -1.36128674       0.00000000
Si       0.02100936       2.71216302      -2.70706062       0.00000000
Si       0.00862896      -2.69840476      -2.72302143       0.00000000
Si       2.71403047      -2.71212094      -0.00186072       0.00000000
Si      -0.00099606      -2.71357075       2.71399351       0.00000000
Si       2.71430740       0.00153175       2.71399351       0.00000000
Si      -2.71672062      -2.71210465      -0.00013783       0.00000000
