10
Lattice="16.28999089631971 0.0 0.0 0.0 16.28999089631971 0.0 0.0 0.0 34.45770212530097" Properties=species:S:1:pos:R:3:initial_magmoms:R:1 pbc="T T T"
Si       1.35703845       1.35716877       1.35663495       0.00000000
Si      -1.35480672       1.35773892      -1.35901253       0.00000000
Si      -1.35734796      -1.35858600       1.35694507       0.00000000
Si       1.35487188      -1.35889551      -1.36008072       0.00000000
Si      -0.02018331       2.70296997      -2.72126064       0.00000000
Si      -0.00001629       2.71414021       2.71389014       0.00000000
Si       2.71443528      -0.00047241       2.71378676       0.00000000
Si      -0.00742824      -2.71054197      -2.71787000       0.00000000
Si      -2.71551042       2.71300694      -0.00192963       0.00000000
Si      -2.71528236      -0.00094482       2.71385568       0.00000000
