10
Lattice="16.28999089631971 0.0 0.0 0.0 16.28999089631971 0.0 0.0 0.0 34.45770212530097" Properties=species:S:1:pos:R:3:initial_magmoms:R:1 pbc="T T T"
Si      -1.35625653      -1.35694071      -1.35777205       0.00000000
Si      -1.35661491       1.35816246       1.35825446       0.00000000
Si       1.35896067       1.35809730      -1.35804772       0.00000000
Si       1.36168110      -1.35710361       1.36176915       0.00000000
Si      -2.69545743      -0.02078604       2.70692968       0.00000000
Si      -2.71282257      -0.00001629      -2.71488941       0.00000000
Si      -2.71497285       2.71409319      -0.00082699       0.00000000
Si       0.00184077      -2.71480995      -2.71519953       0.00000000
Si       0.00156384       2.71573848      -2.71519953       0.00000000
Si       2.71666701       2.71472850      -0.00017229       0.00000000
