10
Lattice="16.28999089631971 0.0 0.0 0.0 16.28999089631971 0.0 0.0 0.0 34.45770212530097" Properties=species:S:1:pos:R:3:initial_magmoms:R:1 pbc="T T T"
Si      -1.34322453      -1.38147345      -1.28630674       0.00000000
Si       1.55994669       1.29109653      -1.15112910       0.00000000
Si      -0.11445354      -0.25498737       2.31790200       0.00000000
Si      -2.59336800       0.02673189      -2.64428554       0.00000000
Si       0.14340087       2.71486764      -2.61161962       0.00000000
Si       0.12707829      -2.71692765      -2.62333524       0.00000000
Si      -2.39987538      -0.20227293       2.93562557       0.00000000
Si       2.82914946      -0.00400734      -2.64559493       0.00000000
Si      -3.23926650      -2.13931683       0.02381029       0.00000000
Si       0.11684817      -2.52429840       2.99096467       0.00000000
