10
Lattice="16.28999089631971 0.0 0.0 0.0 16.28999089631971 0.0 0.0 0.0 34.45770212530097" Properties=species:S:1:pos:R:3:initial_magmoms:R:1 pbc="T T T"
Si      -0.17689311       2.31785590       0.09424187       0.00000000
Si      -1.87805781      -1.10757339       0.86047822       0.00000000
Si       1.82863395      -1.02776868       1.15188717       0.00000000
Si      -0.75360798      -0.04691520      -2.41524506       0.00000000
Si       1.53181386      -0.09962964      -3.03296864       0.00000000
Si       0.89316441      -0.45771642       3.31359232       0.00000000
Si       2.12524227       2.80654938      -0.17256427       0.00000000
Si      -1.39448916      -1.09340109       3.19423077       0.00000000
Si       1.76311557      -2.36894067      -2.35990596       0.00000000
Si       2.30296617      -3.01161375      -0.06574533       0.00000000
