10
Lattice="16.28999089631971 0.0 0.0 0.0 16.28999089631971 0.0 0.0 0.0 34.45770212530097" Properties=species:S:1:pos:R:3:initial_magmoms:R:1 pbc="T T T"
Si      -1.04076810       1.96126713      -0.79466397       0.00000000
Si      -1.54883691      -1.22491026       1.30856643       0.00000000
Si      -0.05779692      -1.29691206      -2.02697546       0.00000000
Si       2.16617904       0.18676485       1.14378960       0.00000000
Si       0.02793735      -2.77109190       2.18537761       0.00000000
Si      -3.24692280      -1.41726258      -0.33103533       0.00000000
Si       1.55305602      -1.15844706       3.04740642       0.00000000
Si      -0.95814522       1.76956641      -3.09978216       0.00000000
Si       0.74253078       0.23315877      -3.62591711       0.00000000
Si       1.16621739      -3.20950467      -1.51259060       0.00000000
