10
Lattice="16.28999089631971 0.0 0.0 0.0 16.28999089631971 0.0 0.0 0.0 34.45770212530097" Properties=species:S:1:pos:R:3:initial_magmoms:R:1 pbc="T T T"
Si      -0.05631453       2.33479357      -0.25695123       0.00000000
Si      -2.30213538      -0.48869348       0.26680614       0.00000000
Si       0.79389315      -0.73157738       2.14151293       0.00000000
Si       0.93346587      -1.54729980      -1.68932425       0.00000000
Si      -2.12524227      -2.80654938       0.17256427       0.00000000
Si      -1.76127480       2.23180819      -2.13262283       0.00000000
Si      -2.77273719       0.37499254       2.38492227       0.00000000
Si       2.38198896      -0.06580671      -2.81429994       0.00000000
Si       2.19035340       3.04951732      -0.06174824       0.00000000
Si      -1.14346026      -0.90542101       3.50645219       0.00000000
