10
Lattice="16.28999089631971 0.0 0.0 0.0 16.28999089631971 0.0 0.0 0.0 34.45770212530097" Properties=species:S:1:pos:R:3:initial_magmoms:R:1 pbc="T T T"
Si      -1.60515144      -0.79198722      -1.47665119       0.00000000
Si       0.05613534      -1.25983602       1.97177419       0.00000000
Si       2.03947446      -0.76222539      -0.91430118       0.00000000
Si      -0.70737696       2.30415534       0.53147589       0.00000000
Si       0.13724325       0.52598781       3.46238076       0.00000000
Si      -1.84951773       1.12057281      -2.90140906       0.00000000
Si       3.53703860       0.76593951      -0.05740656       0.00000000
Si      -0.47457657      -2.62567107      -2.51944521       0.00000000
Si      -3.59521929      -1.14346026      -0.12511599       0.00000000
Si      -2.16031464       2.90007612      -1.35198316       0.00000000
