10
Lattice="16.28999089631971 0.0 0.0 0.0 16.28999089631971 0.0 0.0 0.0 34.45770212530097" Properties=species:S:1:pos:R:3:initial_magmoms:R:1 pbc="T T T"
Si      -1.41207977       1.27154853       1.34416125       0.00000000
Si       1.32899684       1.36370106      -1.36828166       0.00000000
Si      -1.38609675      -1.35220032      -1.35649712       0.00000000
Si       1.43175416      -1.36322865       1.48457647       0.00000000
Si      -2.17658576      -0.54203346       2.75699675       0.00000000
Si      -0.42755548      -2.23052454       2.76278564       0.00000000
Si       2.67844415       2.70534546       0.00520312       0.00000000
Si       2.68370582       0.00706986      -2.72250457       0.00000000
Si       2.70248819      -2.72036484       0.00596119       0.00000000
Si      -0.02957775      -2.70959715      -2.72164312       0.00000000
