10
Lattice="16.28999089631971 0.0 0.0 0.0 16.28999089631971 0.0 0.0 0.0 34.45770212530097" Properties=species:S:1:pos:R:3:initial_magmoms:R:1 pbc="T T T"
Si       1.40178708      -1.27959579      -1.45814740       0.00000000
Si      -1.29889944       1.44013374      -1.45094573       0.00000000
Si       1.97407107       0.87689070       1.33130852       0.00000000
Si      -1.53837873      -1.46004012       1.44078070       0.00000000
Si       0.52546653       0.26181288       3.29081577       0.00000000
Si       0.03432303      -2.08973007       3.19147415       0.00000000
Si       2.70348840       2.73510729      -0.14523930       0.00000000
Si       0.05924673      -2.62317870      -2.82577436       0.00000000
Si       2.74872573      -2.71744893      -0.11756975       0.00000000
Si      -2.65352697       0.08977419      -2.82132931       0.00000000
