10
Lattice="16.28999089631971 0.0 0.0 0.0 16.28999089631971 0.0 0.0 0.0 34.45770212530097" Properties=species:S:1:pos:R:3:initial_magmoms:R:1 pbc="T T T"
Si       0.79945130       1.34700381      -1.85093096       0.00000000
Si       0.98815466      -2.04126732       0.91240600       0.00000000
Si      -1.53015621      -0.40778757      -1.91474666       0.00000000
Si      -0.84320705       1.98957915       1.43547422       0.00000000
Si       3.07767296      -1.02972348      -0.47024452       0.00000000
Si      -0.12462176      -1.73180619       3.00981305       0.00000000
Si      -3.06442986       0.55514691       1.67395610       0.00000000
Si      -2.39333073      -1.64665836       2.40759545       0.00000000
Si       1.12367117       3.50904519       1.08845050       0.00000000
Si       0.91849862       3.65060529      -1.24330350       0.00000000
