10
Lattice="16.28999089631971 0.0 0.0 0.0 16.28999089631971 0.0 0.0 0.0 34.45770212530097" Properties=species:S:1:pos:R:3:initial_magmoms:R:1 pbc="T T T"
Si      -2.08637433      -0.97889868      -0.43630367       0.00000000
Si      -0.99587286       2.12384200       0.38075782       0.00000000
Si       1.73555289       0.29322000      -1.61885821       0.00000000
Si       0.48242835      -1.30916214       1.94262296       0.00000000
Si       0.52310448      -0.77160843      -3.26059634       0.00000000
Si       2.29933417       0.07643268       2.49329180       0.00000000
Si      -3.02184387      -0.40884642       1.72540148       0.00000000
Si      -1.25147925      -0.58508793       3.37272177       0.00000000
Si      -1.61204211      -2.96274375      -1.65393617       0.00000000
Si      -0.85630014       1.30811958      -3.45007935       0.00000000
