10
Lattice="16.28999089631971 0.0 0.0 0.0 16.28999089631971 0.0 0.0 0.0 34.45770212530097" Properties=species:S:1:pos:R:3:initial_magmoms:R:1 pbc="T T T"
Si       2.07171333       0.98038107       0.60962601       0.00000000
Si       0.47412045      -2.26036782       0.54667175       0.00000000
Si      -0.17783793       0.56894454      -2.32148560       0.00000000
Si      -1.94741379       0.81679689       1.19333981       0.00000000
Si       1.30391676       2.85850404       1.75548307       0.00000000
Si       0.47985453      -2.32469703       2.96922185       0.00000000
Si      -1.13248732      -1.37217186      -3.40580118       0.00000000
Si       2.40702669      -3.00139992      -0.68391685       0.00000000
Si      -1.50354908       0.99825120       3.49201440       0.00000000
Si      -1.02344369      -3.78853272      -0.31022287       0.00000000
