10
Lattice="16.28999089631971 0.0 0.0 0.0 16.28999089631971 0.0 0.0 0.0 34.45770212530097" Properties=species:S:1:pos:R:3:initial_magmoms:R:1 pbc="T T T"
Si      -1.90063642       0.65412495       1.31087509       0.00000000
Si      -0.54387504      -0.33927183      -2.32934197       0.00000000
Si       1.12935964      -2.11954077       0.32931244       0.00000000
Si       1.58007136       1.67352057       0.95933742       0.00000000
Si       1.42300318       1.18019421      -2.67636568       0.00000000
Si       0.90342222       1.33939638       3.25260215       0.00000000
Si       3.31537990      -1.44878373      -0.50311719       0.00000000
Si      -1.26848668       0.41194152       3.57729726       0.00000000
Si      -2.12734435       3.03064047       1.18841235       0.00000000
Si      -2.76509785      -1.77370407      -2.09086008       0.00000000
