10
Lattice="16.28999089631971 0.0 0.0 0.0 16.28999089631971 0.0 0.0 0.0 34.45770212530097" Properties=species:S:1:pos:R:3:initial_magmoms:R:1 pbc="T T T"
Si       1.77015285       1.47483144      -0.25957002       0.00000000
Si       0.76779657      -1.87812297      -1.14585707       0.00000000
Si      -0.88824483      -0.53597358       2.09558078       0.00000000
Si      -1.70769210       1.16937765      -1.15367897       0.00000000
Si       0.45348102       3.40133571       0.18614061       0.00000000
Si      -1.30391676      -2.85850404      -1.75548307       0.00000000
Si       2.69342118       0.90780912      -2.38726540       0.00000000
Si      -2.80746584      -1.86025284       1.73653133       0.00000000
Si      -1.65289743       1.43990568       3.17489999       0.00000000
Si      -3.25133055      -2.04170715      -0.56214327       0.00000000
