10
Lattice="16.28999089631971 0.0 0.0 0.0 16.28999089631971 0.0 0.0 0.0 34.45770212530097" Properties=species:S:1:pos:R:3:initial_magmoms:R:1 pbc="T T T"
Si      -1.34866213      -1.35300179       1.35680724       0.00000000
Si      -1.35598449       1.35775521      -1.36049421       0.00000000
Si       1.35837423      -1.35651880      -1.36204481       0.00000000
Si       1.37608146       1.34698752       1.36711010       0.00000000
Si      -2.71412641      -2.71002788      -0.00093036       0.00000000
Si      -2.71250348       2.71515204       0.00465179       0.00000000
Si      -2.71340141       0.00102627      -2.71826627       0.00000000
Si       0.00148239      -2.71344944      -2.71823181       0.00000000
Si       2.71357191       2.71857294       0.00106819       0.00000000
Si       2.72565909      -0.12794166       2.70355282       0.00000000
