10
Lattice="16.28999089631971 0.0 0.0 0.0 16.28999089631971 0.0 0.0 0.0 34.45770212530097" Properties=species:S:1:pos:R:3:initial_magmoms:R:1 pbc="T T T"
Si       1.21510042      -1.41677781       1.40005168       0.00000000
Si       1.34866213       1.35300179      -1.35680724       0.00000000
Si      -1.36546427      -1.35702609      -1.35773760       0.00000000
Si      -1.31372774       1.28274302       1.51010964       0.00000000
Si       2.29082686       0.32544488       2.40373619       0.00000000
Si      -2.15248959      -0.67485723       2.80330792       0.00000000
Si      -0.47730352      -2.48418006       2.70276029       0.00000000
Si       2.69747413      -2.72255163       0.02153608       0.00000000
Si       2.72474359       2.69998931       0.01030286       0.00000000
Si       2.70703636      -0.00351701      -2.71885205       0.00000000
