10
Lattice="16.28999089631971 0.0 0.0 0.0 16.28999089631971 0.0 0.0 0.0 34.45770212530097" Properties=species:S:1:pos:R:3:initial_magmoms:R:1 pbc="T T T"
Si       0.61939467      -1.06067448      -1.91402305       0.00000000
Si      -1.97522766      -0.99737154       0.89372992       0.00000000
Si      -1.04431932       2.19644586      -0.03621507       0.00000000
Si       2.12297796      -0.08224821       1.25770683       0.00000000
Si       1.66312755       2.08832913       2.06953075       0.00000000
Si      -0.69805908       2.35146150       2.33557881       0.00000000
Si       1.50853545       0.72988974      -3.11036068       0.00000000
Si      -1.24427907      -1.89195318      -3.06174083       0.00000000
Si      -1.77005511      -1.13893164       3.22548393       0.00000000
Si      -3.85272656       0.46423242       0.09686065       0.00000000
