10
Lattice="16.28999089631971 0.0 0.0 0.0 16.28999089631971 0.0 0.0 0.0 34.45770212530097" Properties=species:S:1:pos:R:3:initial_magmoms:R:1 pbc="T T T"
Si      -1.33015995      -1.19821095       1.54370592       0.00000000
Si      -0.40786902       2.22128715       0.73956607       0.00000000
Si       2.36118663      -0.26313237      -0.26604807       0.00000000
Si      -0.34626024      -0.15501564      -2.37179388       0.00000000
Si       1.06966656       1.91224467      -2.42437636       0.00000000
Si       0.69805908      -2.35146150      -2.33557881       0.00000000
Si      -3.36921902      -0.03756474       1.19320198       0.00000000
Si      -2.77185916       2.31035598       0.91033854       0.00000000
Si      -1.07199603      -3.49039314       0.88990511       0.00000000
Si       0.32348682       3.71443670      -0.95217021       0.00000000
