10
Lattice="10.86 0.0 0.0 0.0 10.86 0.0 0.0 0.0 10.86" Properties=species:S:1:pos:R:3:initial_magmoms:R:1 pbc="T T T"
Si       1.55658552       1.06221660      -1.22096808       0.00000000
Si      -1.42476684       1.45974690       1.06813530       0.00000000
Si       1.35750000      -1.35750000       1.35750000       0.00000000
Si      -1.35750000      -1.35750000      -1.35750000       0.00000000
Si      -3.26306076       0.85656078      -0.58596216       0.00000000
Si       0.22685454       2.79964284      -2.13884442       0.00000000
Si       2.71500000       0.00000000       2.71500000       0.00000000
Si      -2.71500000      -2.71500000       0.00000000       0.00000000
Si       0.00000000      -2.71500000      -2.71500000       0.00000000
Si      -2.71500000       0.00000000       2.71500000       0.00000000
