10
Lattice="10.86 0.0 0.0 0.0 10.86 0.0 0.0 0.0 10.86" Properties=species:S:1:pos:R:3:initial_magmoms:R:1 pbc="T T T"
Si      -1.13889906      -1.48698378       1.03046196       0.00000000
Si      -1.13889906       1.22801622      -1.68453804       0.00000000
Si       1.80763614       1.15281072       1.08855210       0.00000000
Si       1.57610094      -1.48698378      -1.68453804       0.00000000
Si      -2.49639906      -0.12948378       2.38796196       0.00000000
Si       0.08886738       2.52266940       2.41351554       0.00000000
Si       2.68659024      -2.36319030       0.18986538       0.00000000
Si      -2.49639906       2.58551622      -0.32703804       0.00000000
Si      -2.49639906      -2.84448378      -0.32703804       0.00000000
Si      -2.49639906      -0.12948378      -3.04203804       0.00000000
