10
Lattice="10.86 0.0 0.0 0.0 10.86 0.0 0.0 0.0 10.86" Properties=species:S:1:pos:R:3:initial_magmoms:R:1 pbc="T T T"
Si      -1.01670234      -1.57407012       1.53518046       0.00000000
Si       1.69829766       1.14092988       1.53518046       0.00000000
Si       1.69829766      -1.57407012      -1.17981954       0.00000000
Si       0.39135096       2.44966848      -2.60405424       0.00000000
Si      -0.78984780      -1.48942728      -3.31866396       0.00000000
Si      -2.44146918      -2.82932322      -0.11168424       0.00000000
Si      -2.37420234      -0.21657012       2.89268046       0.00000000
Si      -2.61656496       2.70282594       0.28569402       0.00000000
Si       0.34079766       2.49842988       2.89268046       0.00000000
Si       3.05579766       2.49842988       0.17768046       0.00000000
