10
Lattice="16.28999089631971 0.0 0.0 0.0 16.28999089631971 0.0 0.0 0.0 34.24959146834617" Properties=species:S:1:pos:R:3:initial_magmoms:R:1 pbc="T T T"
Si      -1.44348948       1.24746376       1.35080807       0.00000000
Si      -1.10910465      -1.73985249      -1.19281941       0.00000000
Si       1.31745375      -1.47888669       1.34377662       0.00000000
Si       1.17296145       1.55464429      -1.43792679       0.00000000
Si      -0.07113843       2.58857060       2.72595048       0.00000000
Si       2.64616389      -0.12876593       2.72858770       0.00000000
Si      -2.86956495       2.60458366      -0.19331850       0.00000000
Si      -2.78185959      -0.12770057       2.72807396       0.00000000
Si       0.71096076      -3.56135142      -1.49543188       0.00000000
Si       2.81590569       2.74412380      -0.15399310       0.00000000
