10
Lattice="16.28999089631971 0.0 0.0 0.0 16.28999089631971 0.0 0.0 0.0 34.24959146834617" Properties=species:S:1:pos:R:3:initial_magmoms:R:1 pbc="T T T"
Si       1.12609512      -1.51092766      -1.36375100       0.00000000
Si      -1.48566266      -1.35148114       1.19085896       0.00000000
Si      -1.60293437       1.22808828      -1.34803042       0.00000000
Si       1.70860923       0.89561752       1.52801213       0.00000000
Si       2.54506815       2.63071429       0.08521303       0.00000000
Si       2.46617568      -0.14104441      -2.73007071       0.00000000
Si      -1.20502017       1.94826103       2.89604432       0.00000000
Si      -2.68346799       0.01568548       2.62670539       0.00000000
Si      -0.25467786       2.57840710      -2.72606351       0.00000000
Si       3.33899388      -1.01344735       1.46084864       0.00000000
