10
Lattice="16.28999089631971 0.0 0.0 0.0 16.28999089631971 0.0 0.0 0.0 34.24959146834617" Properties=species:S:1:pos:R:3:initial_magmoms:R:1 pbc="T T T"
Si      -0.36797481      -2.20637366       0.88018074       0.00000000
Si      -1.49988546       1.42612434       1.34244774       0.00000000
Si      -0.08790084      -0.79299720      -2.44730593       0.00000000
Si       2.33160399       0.37120023       1.09728902       0.00000000
Si      -3.00153024       0.25964631      -1.07927373       0.00000000
Si      -1.12876668       3.33244530       0.08634327       0.00000000
Si       1.27496943       3.31133346      -0.37972543       0.00000000
Si       1.75925484      -3.09222386       1.43163372       0.00000000
Si       2.31651945      -1.15875331       2.86525392       0.00000000
Si      -3.67793665       0.46165860       1.21322396       0.00000000
