10
Lattice="16.28999089631971 0.0 0.0 0.0 16.28999089631971 0.0 0.0 0.0 34.24959146834617" Properties=species:S:1:pos:R:3:initial_magmoms:R:1 pbc="T T T"
Si      -0.50360535       2.02385983       1.02190563       0.00000000
Si       0.55444644      -1.53008779       1.68268337       0.00000000
Si       1.97526024      -0.06453121      -1.25576197       0.00000000
Si      -1.81421730      -1.06013758      -1.12876442       0.00000000
Si      -0.70923402      -1.11215155      -3.24083515       0.00000000
Si      -1.48017456      -2.35810849       2.33369997       0.00000000
Si       1.41799563      -1.99800175      -2.68938217       0.00000000
Si      -2.55002031       1.52286088       2.10412483       0.00000000
Si       3.72377997       0.12783577       0.43147659       0.00000000
Si      -2.21993604      -3.01953136       0.18830436       0.00000000
