10
Lattice="16.28999089631971 0.0 0.0 0.0 16.28999089631971 0.0 0.0 0.0 34.24959146834617" Properties=species:S:1:pos:R:3:initial_magmoms:R:1 pbc="T T T"
Si       0.96062130      -0.46541737       2.07800954       0.00000000
Si      -1.56040281       1.74255270      -0.37332076       0.00000000
Si       2.08974636       0.38932611      -1.06451215       0.00000000
Si      -0.26754696      -2.42500663      -0.67505983       0.00000000
Si       2.16935559      -2.00622331      -0.66968264       0.00000000
Si      -0.78172452      -1.60803055       3.21764273       0.00000000
Si       0.04201191       3.57625284      -1.54736316       0.00000000
Si      -1.22636007      -2.30550319      -2.91717633       0.00000000
Si      -2.55682953      -2.46188719       1.75751877       0.00000000
Si       2.78068671      -2.28691630       1.77539707       0.00000000
