10
Lattice="16.28999089631971 0.0 0.0 0.0 16.28999089631971 0.0 0.0 0.0 34.24959146834617" Properties=species:S:1:pos:R:3:initial_magmoms:R:1 pbc="T T T"
Si      -1.35547461       1.34938215      -1.35809981       0.00000000
Si       1.35746199       1.35534429       1.35642158       0.00000000
Si      -1.35716877      -1.36011726       1.35594208       0.00000000
Si       1.35329175      -1.35920502      -1.36347700       0.00000000
Si       0.00571779       2.69685837      -2.72791299       0.00000000
Si      -2.71376739       2.71332756      -0.00058224       0.00000000
Si      -0.00050499       2.71321353       2.71448714       0.00000000
Si       2.71660185       2.71251306      -0.00047949       0.00000000
Si       2.71513575      -0.00257382       2.71404189       0.00000000
Si      -2.71591767      -0.00174303       2.71400764       0.00000000
