10
Lattice="16.28999089631971 0.0 0.0 0.0 16.28999089631971 0.0 0.0 0.0 34.24959146834617" Properties=species:S:1:pos:R:3:initial_magmoms:R:1 pbc="T T T"
Si       0.44857773       2.08129185      -0.90261424       0.00000000
Si      -2.13734574       0.41500404       0.83500551       0.00000000
Si       1.17745749      -0.59307003       1.95531027       0.00000000
Si       0.60085665      -1.05982740      -2.03596810       0.00000000
Si      -3.41977599      -1.38844557       0.03476335       0.00000000
Si       2.79800298       2.26269729      -0.97224370       0.00000000
Si      -0.25291854      -2.23616088       3.00451284       0.00000000
Si       2.97013941      -0.73930536      -2.26506375       0.00000000
Si       3.40374663      -1.24377408       1.30939686       0.00000000
Si      -2.05195356       0.54980379       3.25176078       0.00000000
