10
Lattice="16.28999089631971 0.0 0.0 0.0 16.28999089631971 0.0 0.0 0.0 34.24959146834617" Properties=species:S:1:pos:R:3:initial_magmoms:R:1 pbc="T T T"
Si      -2.24078724       0.15193683       0.53021822       0.00000000
Si       1.25128377       1.97273529       0.26403025       0.00000000
Si      -0.08539218      -0.13479975      -2.41675527       0.00000000
Si       0.81712269      -1.64939508       1.58082503       0.00000000
Si       1.79903502      -2.78596467      -0.24724794       0.00000000
Si       3.35031543       0.77445918       0.19559953       0.00000000
Si      -2.98796067       1.17125100      -1.46108839       0.00000000
Si      -2.61671157      -2.16256266       1.05721698       0.00000000
Si       3.22941105      -1.14287382      -1.29645051       0.00000000
Si      -0.21758553      -3.34619406      -1.64514580       0.00000000
