10
Lattice="16.28999089631971 0.0 0.0 0.0 16.28999089631971 0.0 0.0 0.0 34.24959146834617" Properties=species:S:1:pos:R:3:initial_magmoms:R:1 pbc="T T T"
Si       0.11049507      -1.97099063       1.21034699       0.00000000
Si      -0.35271108       1.68463035       1.62014358       0.00000000
Si       2.04641496       0.50099895      -1.08221920       0.00000000
Si      -1.88572226      -0.18629244      -1.48033667       0.00000000
Si      -1.47889742       1.96028973      -2.28215430       0.00000000
Si       0.89617806       1.90894365      -2.65407083       0.00000000
Si      -2.16897115      -2.27299976       1.61254017       0.00000000
Si       1.26047133       1.01502990       3.20768153       0.00000000
Si       2.55002031      -1.52286088      -2.10412483       0.00000000
Si       1.30328145      -1.36787293       3.13048291       0.00000000
