10
Lattice="16.28999089631971 0.0 0.0 0.0 16.28999089631971 0.0 0.0 0.0 34.24959146834617" Properties=species:S:1:pos:R:3:initial_magmoms:R:1 pbc="T T T"
Si      -0.98694594       1.58140062       1.40200781       0.00000000
Si       0.57888144       1.32388830      -1.86410356       0.00000000
Si      -1.72056609      -1.58511474      -0.59792970       0.00000000
Si       2.13240987      -0.80622468       0.81914794       0.00000000
Si       2.52696996       0.14317281      -2.40124020       0.00000000
Si      -2.18222469       0.15328890       2.86700065       0.00000000
Si       3.60960336       0.62530794      -0.35102426       0.00000000
Si      -1.27026162       1.48094019      -3.26703611       0.00000000
Si       0.59911362       2.97518931       2.35678421       0.00000000
Si      -1.31453784      -2.50168788      -2.74322256       0.00000000
