10
Lattice="16.28999089631971 0.0 0.0 0.0 16.28999089631971 0.0 0.0 0.0 34.24959146834617" Properties=species:S:1:pos:R:3:initial_magmoms:R:1 pbc="T T T"
Si       1.07173539       1.65763782       1.34717217       0.00000000
Si      -1.57006278      -1.07665497       1.57860706       0.00000000
Si      -1.42822575       1.00172097      -1.82745647       0.00000000
Si       1.95561450      -1.64255328      -0.11559244       0.00000000
Si      -2.93255838      -2.25839673       0.01493283       0.00000000
Si       2.48049459       0.26376768       2.87514662       0.00000000
Si      -0.24135264      -2.47881672       2.90814955       0.00000000
Si      -0.47566800       0.12201210      -3.81749585       0.00000000
Si      -1.55479905      -3.13198056      -1.75587479       0.00000000
Si       1.88832051       3.60518877       0.05120317       0.00000000
