10
Lattice="16.28999089631971 0.0 0.0 0.0 16.28999089631971 0.0 0.0 0.0 34.24959146834617" Properties=species:S:1:pos:R:3:initial_magmoms:R:1 pbc="T T T"
Si      -0.39674295      -2.06071758      -1.01180200       0.00000000
Si      -1.20304908       0.12311982       2.02531647       0.00000000
Si       2.13143247       0.66358944       0.89360659       0.00000000
Si      -1.41982011       0.51328161      -1.92078666       0.00000000
Si       1.44524880       2.91099272       0.58662733       0.00000000
Si       0.32871591       1.45410488      -3.18644677       0.00000000
Si       1.72056609      -2.67072921      -1.81944206       0.00000000
Si      -3.33027873       1.00897002       1.47386349       0.00000000
Si      -1.52138826      -3.45787830       0.51754587       0.00000000
Si       2.28436299      -0.48726648       3.08044423       0.00000000
