10
Lattice="16.28999089631971 0.0 0.0 0.0 16.28999089631971 0.0 0.0 0.0 34.24959146834617" Properties=species:S:1:pos:R:3:initial_magmoms:R:1 pbc="T T T"
Si       1.10501586       1.90643240      -0.79096051       0.00000000
Si      -1.39895262      -0.39605877      -1.83807385       0.00000000
Si      -1.15338087       0.19305279       2.05740836       0.00000000
Si       1.60485822      -1.68435342       0.46387673       0.00000000
Si      -0.27385119      -2.20048578      -2.78497284       0.00000000
Si       2.68335396       2.13010388       1.08451392       0.00000000
Si       2.14599573      -1.24437681       2.73472866       0.00000000
Si       1.89209979      -1.10182302      -3.05975746       0.00000000
Si      -1.98309573      -2.10370689       2.41291932       0.00000000
Si       1.77038091       1.26186480      -3.08928063       0.00000000
