10
Lattice="16.28999089631971 0.0 0.0 0.0 16.28999089631971 0.0 0.0 0.0 34.24959146834617" Properties=species:S:1:pos:R:3:initial_magmoms:R:1 pbc="T T T"
Si      -0.81658512      -1.94755095       1.29596900       0.00000000
Si       2.09034909       0.72775575       1.23509717       0.00000000
Si      -0.61133112       0.28069299      -2.44507970       0.00000000
Si      -1.82006541       1.82149893       0.30261247       0.00000000
Si       0.60649299       2.08246473       2.83920850       0.00000000
Si      -2.14671249      -0.65140452       2.84323968       0.00000000
Si      -3.56241123       0.67888575       1.44224566       0.00000000
Si      -3.04823367      -0.13809033      -2.45045689       0.00000000
Si      -0.71096076       3.56135142       1.49543188       0.00000000
Si      -0.69094035       2.67624242      -2.83990921       0.00000000
