10
Lattice="16.28999089631971 0.0 0.0 0.0 16.28999089631971 0.0 0.0 0.0 34.24959146834617" Properties=species:S:1:pos:R:3:initial_magmoms:R:1 pbc="T T T"
Si      -1.35351981       1.35708193      -1.36426474       0.00000000
Si       1.36184400      -1.35938701      -1.36334000       0.00000000
Si      -1.36171368      -1.34767450       1.38498575       0.00000000
Si       1.35135324       1.36759387       1.38214304       0.00000000
Si      -2.70875007       2.70893365      -0.00393871       0.00000000
Si      -2.71173114      -2.71215748      -0.00428120       0.00000000
Si      -2.71101438      -0.00165670      -2.72068632       0.00000000
Si       0.00392589       2.71386952      -2.72058357       0.00000000
Si       2.71604799       2.71944070      -0.00363046       0.00000000
Si       2.71953405      -2.71683271      -0.00222622       0.00000000
