10
Lattice="16.28999089631971 0.0 0.0 0.0 16.28999089631971 0.0 0.0 0.0 34.24959146834617" Properties=species:S:1:pos:R:3:initial_magmoms:R:1 pbc="T T T"
Si      -0.08957871      -2.33073966      -0.46171900       0.00000000
Si      -2.26072620       0.55771584       0.49268065       0.00000000
Si       0.44777952       1.04374103      -2.11193374       0.00000000
Si       1.38240198       0.29297402       2.02192576       0.00000000
Si       2.49616557      -0.15128523      -2.50059832       0.00000000
Si       0.93221154       3.27946207      -1.38964370       0.00000000
Si      -3.38895531      -0.89331006      -1.13903930       0.00000000
Si      -2.41834824      -0.08513969       2.85288981       0.00000000
Si      -0.50946975       1.22499986       3.65224148       0.00000000
Si      -1.31005809      -3.42265836       1.31388356       0.00000000
