10
Lattice="16.28999089631971 0.0 0.0 0.0 16.28999089631971 0.0 0.0 0.0 34.24959146834617" Properties=species:S:1:pos:R:3:initial_magmoms:R:1 pbc="T T T"
Si      -1.35505107      -1.35791811      -1.35755182       0.00000000
Si      -1.35674523       1.35661491       1.35727782       0.00000000
Si       1.35760860      -1.35757602       1.35762031       0.00000000
Si       1.35775521       1.35977517      -1.35724357       0.00000000
Si      -0.00096111       2.71448415      -2.71280891       0.00000000
Si       0.00016290      -2.71436360       2.71393914       0.00000000
Si       0.00197109       2.71383255       2.71448714       0.00000000
Si       2.71489140       0.00006516       2.71390490       0.00000000
Si      -2.71441899       2.71453302      -0.00034250       0.00000000
Si      -2.71406061      -0.00091224       2.71493238       0.00000000
