10
Lattice="16.28999089631971 0.0 0.0 0.0 16.28999089631971 0.0 0.0 0.0 34.24959146834617" Properties=species:S:1:pos:R:3:initial_magmoms:R:1 pbc="T T T"
Si       1.36560699       1.33779996       1.36371675       0.00000000
Si       1.35638685      -1.35599589      -1.35799706       0.00000000
Si      -1.35653346       1.35777150      -1.35741482       0.00000000
Si      -1.34348517      -1.35829278       1.38200604       0.00000000
Si       2.71122615      -2.70806589       0.00267147       0.00000000
Si      -0.00089595      -2.71363707      -2.71428164       0.00000000
Si       2.71539639       2.71311579       0.00417845       0.00000000
Si       2.71407690       0.00092853      -2.71445289       0.00000000
Si      -2.71524978       0.00055386      -2.71462414       0.00000000
Si      -0.00058644       2.71585251      -2.71455564       0.00000000
