10
Lattice="16.28999089631971 0.0 0.0 0.0 16.28999089631971 0.0 0.0 0.0 34.24959146834617" Properties=species:S:1:pos:R:3:initial_magmoms:R:1 pbc="T T T"
Si       1.29481065      -1.34011314      -1.39926784       0.00000000
Si      -1.30619736      -1.36047564       1.47773370       0.00000000
Si      -1.41763725       1.38487806      -1.39471264       0.00000000
Si       1.77769512       0.98484453       1.40738500       0.00000000
Si      -1.82915523       0.85499694       2.23824630       0.00000000
Si       2.53342080      -2.66211180       0.21159409       0.00000000
Si       2.62501947       2.75546979       0.07486965       0.00000000
Si       2.64460005       0.03520269      -2.75880613       0.00000000
Si      -2.77423587      -2.66235615       0.01229561       0.00000000
Si      -0.07079634      -2.67791310      -2.76298459       0.00000000
