10
Lattice="16.28999089631971 0.0 0.0 0.0 16.28999089631971 0.0 0.0 0.0 34.24959146834617" Properties=species:S:1:pos:R:3:initial_magmoms:R:1 pbc="T T T"
Si       1.35995436      -1.37384973      -1.39327416       0.00000000
Si      -1.38266262       1.35576783      -1.39183568       0.00000000
Si      -1.08133020      -1.55957202       1.51903873       0.00000000
Si       1.46803851       1.30188051       1.46543809       0.00000000
Si      -2.64582180      -2.67618636       0.03966105       0.00000000
Si       2.71000440      -2.65727367       0.25063865       0.00000000
Si       2.77423587       2.66235615      -0.01229561       0.00000000
Si      -0.01316232       2.70285309      -2.77137574       0.00000000
Si       2.70343953      -0.01555695      -2.77528020       0.00000000
Si      -2.72842839      -0.01361844      -2.77000576       0.00000000
