10
Lattice="16.28999089631971 0.0 0.0 0.0 16.28999089631971 0.0 0.0 0.0 34.24959146834617" Properties=species:S:1:pos:R:3:initial_magmoms:R:1 pbc="T T T"
Si      -2.09732121       1.03560417      -0.07079395       0.00000000
Si       1.44264240       1.06829820      -1.53746502       0.00000000
Si       0.64622430       0.50279085       2.23975329       0.00000000
Si       0.11531691      -2.40461577      -0.16295965       0.00000000
Si       3.04267878      -0.00003258       1.51314780       0.00000000
Si       3.13673724       1.66073292      -0.07733562       0.00000000
Si      -3.67893360      -0.60264855       0.49319439       0.00000000
Si       2.17536660      -2.86938576      -1.18808474       0.00000000
Si      -2.48850927       1.88410140      -2.19906475       0.00000000
Si      -1.49646456       0.16146648       3.51027684       0.00000000
