10
Lattice="16.28999089631971 0.0 0.0 0.0 16.28999089631971 0.0 0.0 0.0 34.24959146834617" Properties=species:S:1:pos:R:3:initial_magmoms:R:1 pbc="T T T"
Si       1.58161239       1.63825272      -0.56398834       0.00000000
Si       0.74580507      -0.90854217       2.10727579       0.00000000
Si      -2.09903166       1.19827611       0.06843072       0.00000000
Si      -0.12090438      -1.91733300      -1.49205004       0.00000000
Si      -3.35031543      -0.77445918      -0.19559953       0.00000000
Si      -1.29912750      -1.47150828       3.18134358       0.00000000
Si       3.67893360       0.60264855      -0.49319439       0.00000000
Si      -2.53319274      -2.42385426       1.38522550       0.00000000
Si       2.18246904       0.76411503       3.01708245       0.00000000
Si       1.19042433       2.48674995      -2.69225914       0.00000000
