10
Lattice="16.28999089631971 0.0 0.0 0.0 16.28999089631971 0.0 0.0 0.0 34.24959146834617" Properties=species:S:1:pos:R:3:initial_magmoms:R:1 pbc="T T T"
Si      -1.35550719      -1.35747828      -1.35700382       0.00000000
Si       1.35769005      -1.35726651       1.35758607       0.00000000
Si       1.35759231       1.35896067      -1.35679832       0.00000000
Si      -1.35773892       1.35783666       1.35792856       0.00000000
Si      -0.00118917      -2.71469592      -2.71256916       0.00000000
Si       0.00019548       2.71336014       2.71554888       0.00000000
Si      -2.71464705      -2.71464705      -0.00010275       0.00000000
Si       2.71370223       0.00091224       2.71565163       0.00000000
Si       2.71500543      -2.71480995       0.00044524       0.00000000
Si       0.00174303      -2.71534752       2.71472689       0.00000000
