10
Lattice="16.28999089631971 0.0 0.0 0.0 16.28999089631971 0.0 0.0 0.0 34.24959146834617" Properties=species:S:1:pos:R:3:initial_magmoms:R:1 pbc="T T T"
Si      -1.35594702      -1.35808101       1.35714082       0.00000000
Si       1.35731538      -1.35754344      -1.35714082       0.00000000
Si       1.35601218       1.35817875       1.35806556       0.00000000
Si      -1.35769005       1.35726651      -1.35758607       0.00000000
Si      -0.00016290      -2.71213839      -2.71458989       0.00000000
Si      -2.71319724      -0.00021177      -2.71458989       0.00000000
Si       2.71466334      -2.71492398       0.00010275       0.00000000
Si      -2.71466334      -2.71529865      -0.00006850       0.00000000
Si       0.00094482       2.71531494       2.71465839       0.00000000
Si       2.71515204       2.71484253      -0.00013700       0.00000000
