10
Lattice="16.28999089631971 0.0 0.0 0.0 16.28999089631971 0.0 0.0 0.0 34.24959146834617" Properties=species:S:1:pos:R:3:initial_magmoms:R:1 pbc="T T T"
Si       1.15544970       1.37334474      -1.45944441       0.00000000
Si      -1.94808852       1.18071549       0.53713664       0.00000000
Si       1.08263340       0.48213513       2.05021594       0.00000000
Si      -0.16086375      -2.20488408      -0.97440142       0.00000000
Si      -0.39456009      -0.94939749       3.22038814       0.00000000
Si      -0.55205181      -1.35638685      -3.10267223       0.00000000
Si      -2.52696996      -0.14317281       2.40124020       0.00000000
Si       0.81785574       0.40088061      -3.56449397       0.00000000
Si       0.45988299       3.59432334      -1.03046803       0.00000000
Si      -1.24851447       3.48395859       0.71156991       0.00000000
