10
Lattice="16.28999089631971 0.0 0.0 0.0 16.28999089631971 0.0 0.0 0.0 34.24959146834617" Properties=species:S:1:pos:R:3:initial_magmoms:R:1 pbc="T T T"
Si       1.36171368       1.34767450      -1.38498575       0.00000000
Si      -1.35001746      -1.36448298      -1.38926696       0.00000000
Si       1.37104785      -1.37619549       1.38330752       0.00000000
Si      -1.44026406       1.41121331       1.53362906       0.00000000
Si      -2.70472644       2.70674218      -0.01972778       0.00000000
Si      -2.70402597      -2.71911051      -0.01455608       0.00000000
Si       2.71306692       2.71526837      -0.00284272       0.00000000
Si       0.00819387       2.70475643      -2.74925049       0.00000000
Si      -2.70563868      -0.00964368      -2.74887375       0.00000000
Si       2.71433754      -2.74380615      -0.01955653       0.00000000
