10
Lattice="16.28999089631971 0.0 0.0 0.0 16.28999089631971 0.0 0.0 0.0 34.24959146834617" Properties=species:S:1:pos:R:3:initial_magmoms:R:1 pbc="T T T"
Si      -0.68618367       2.24740328      -0.30697926       0.00000000
Si      -2.13143247      -0.66358944      -0.89360659       0.00000000
Si       2.18246904      -0.27575712      -1.03690696       0.00000000
Si       0.15293052      -1.15085592       2.18683764       0.00000000
Si       2.65637772      -2.29151430       0.03325637       0.00000000
Si      -3.33448155      -0.54046962       1.13170988       0.00000000
Si       0.89484228       3.41334863       0.98820401       0.00000000
Si       2.50297479      -1.54640970       2.33520695       0.00000000
Si       0.79726518      -3.70392246      -0.49778384       0.00000000
Si      -0.30977064      -3.42166563       1.78406222       0.00000000
