10
Lattice="16.28999089631971 0.0 0.0 0.0 16.28999089631971 0.0 0.0 0.0 34.24959146834617" Properties=species:S:1:pos:R:3:initial_magmoms:R:1 pbc="T T T"
Si      -1.06199397       1.89931367      -0.93587061       0.00000000
Si       2.33512263      -0.18042804      -0.67026488       0.00000000
Si      -0.12694797       0.17713746       2.50953747       0.00000000
Si      -0.20773008      -2.25196218      -1.13314837       0.00000000
Si       1.72204848      -1.49677407       2.69804733       0.00000000
Si       3.06535446      -2.11344831       0.62447315       0.00000000
Si       0.50834574       3.72380345      -1.00197236       0.00000000
Si      -2.24417556      -3.17554002      -0.52189557       0.00000000
Si      -0.52129629      -1.94575905      -3.46582085       0.00000000
Si      -2.95386570       2.83133951       0.69444510       0.00000000
