10
Lattice="16.28999089631971 0.0 0.0 0.0 16.28999089631971 0.0 0.0 0.0 34.24959146834617" Properties=species:S:1:pos:R:3:initial_magmoms:R:1 pbc="T T T"
Si       1.84899645      -1.67391153       0.18850986       0.00000000
Si      -1.95450678      -0.60442416       1.46056235       0.00000000
Si       0.12694797      -0.17713746      -2.50953747       0.00000000
Si       0.65407608       1.99989302       1.47762551       0.00000000
Si      -0.75153915      -1.98964431       3.05364874       0.00000000
Si       1.96556769       0.75224138       3.07428413       0.00000000
Si       0.72444888      -3.39203412       1.54592951       0.00000000
Si       3.33656667      -0.64599624       1.72302054       0.00000000
Si      -0.93504600       1.72217621      -3.44540808       0.00000000
Si       2.33668647       3.20822495       0.27481888       0.00000000
