10
Lattice="16.28999089631971 0.0 0.0 0.0 16.28999089631971 0.0 0.0 0.0 34.24959146834617" Properties=species:S:1:pos:R:3:initial_magmoms:R:1 pbc="T T T"
Si      -1.53059211      -1.60675601      -0.62101394       0.00000000
Si       1.85054400      -0.36685080      -1.37957432       0.00000000
Si       0.61867791       0.12570993       2.26992719       0.00000000
Si      -0.95959503       2.15440137      -0.42068797       0.00000000
Si       2.95614630       1.49426541      -0.49254365       0.00000000
Si       2.42680275       1.57055148       1.81255789       0.00000000
Si      -3.57897816      -0.41172975      -0.23234936       0.00000000
Si      -3.09454614       1.82399130       0.48994068       0.00000000
Si      -0.44973432      -3.62529782       0.34561282       0.00000000
Si       1.30833135       0.19442115      -3.59812709       0.00000000
