10
Lattice="16.28999089631971 0.0 0.0 0.0 16.28999089631971 0.0 0.0 0.0 34.24959146834617" Properties=species:S:1:pos:R:3:initial_magmoms:R:1 pbc="T T T"
Si       1.35617508      -1.35583299      -1.35950404       0.00000000
Si      -1.35808101      -1.35672894       1.35830531       0.00000000
Si       1.35666378       1.35897696       1.35827106       0.00000000
Si      -1.35979146       1.36003581      -1.36173027       0.00000000
Si      -2.71555929      -2.71132389       0.00085624       0.00000000
Si       2.71433754      -2.71469592      -0.00037675       0.00000000
Si      -0.00073305      -2.71410948       2.71554888       0.00000000
Si       2.71486745       0.00074934       2.71537763       0.00000000
Si      -2.71539639       0.00081450       2.71544613       0.00000000
Si      -0.00024435       2.71565703       2.71530913       0.00000000
