10
Lattice="16.28999089631971 0.0 0.0 0.0 16.28999089631971 0.0 0.0 0.0 34.24959146834617" Properties=species:S:1:pos:R:3:initial_magmoms:R:1 pbc="T T T"
Si      -1.35816246      -1.35668007      -1.35676407       0.00000000
Si       1.35782679      -1.35493704       1.35936705       0.00000000
Si       1.35743804       1.35817875      -1.35693532       0.00000000
Si      -1.35684297       1.35550719       1.36186727       0.00000000
Si      -2.70663237      -0.01980864       2.72140556       0.00000000
Si       0.00000000      -2.71463076      -2.71414464       0.00000000
Si       2.71530584      -2.71350675      -0.00034250       0.00000000
Si       2.71518203       0.00047241      -2.71424739       0.00000000
Si      -2.71585251      -2.71360449      -0.00030825       0.00000000
Si      -2.71551042       0.00070047      -2.71400764       0.00000000
