10
Lattice="16.28999089631971 0.0 0.0 0.0 16.28999089631971 0.0 0.0 0.0 34.24959146834617" Properties=species:S:1:pos:R:3:initial_magmoms:R:1 pbc="T T T"
Si      -0.64622430      -0.50279085      -2.23975329       0.00000000
Si       0.59658867      -1.95235650       1.25524823       0.00000000
Si       0.64280340       2.26747026       0.56145387       0.00000000
Si      -2.14268886      -0.34132437       1.27052356       0.00000000
Si       2.39645448      -0.50282343      -0.72660549       0.00000000
Si      -1.01472039      -1.54724049       2.96057059       0.00000000
Si       2.49051294       1.15794207      -2.31708891       0.00000000
Si      -1.50004836       3.21983253       0.71407013       0.00000000
Si      -2.74354551       0.53281332      -2.31054723       0.00000000
Si      -0.13331736      -3.68774649      -0.19227731       0.00000000
