10
Lattice="16.28999089631971 0.0 0.0 0.0 16.28999089631971 0.0 0.0 0.0 34.24959146834617" Properties=species:S:1:pos:R:3:initial_magmoms:R:1 pbc="T T T"
Si       1.76082750      -0.73262646       1.35844231       0.00000000
Si       0.29335032      -1.31025357      -1.92287589       0.00000000
Si       0.94741011       1.81855044      -1.18555027       0.00000000
Si      -2.29700403       0.29853054       0.69468485       0.00000000
Si       1.40039430       0.43103340      -3.04499588       0.00000000
Si      -2.13649866      -1.36839258       2.32791178       0.00000000
Si       1.18556991      -2.95914366       1.44108662       0.00000000
Si      -1.83703959      -1.21718880      -2.86076723       0.00000000
Si      -3.44834865      -0.81207279      -1.15544486       0.00000000
Si       3.03867863       2.20180527      -0.19162657       0.00000000
