10
Lattice="16.28999089631971 0.0 0.0 0.0 16.28999089631971 0.0 0.0 0.0 34.24959146834617" Properties=species:S:1:pos:R:3:initial_magmoms:R:1 pbc="T T T"
Si       0.92639342      -1.19161350      -1.79005590       0.00000000
Si       0.79449492       0.16904133       2.20807240       0.00000000
Si       0.42569910       2.05669395      -1.13609383       0.00000000
Si      -1.50135156      -1.94430924       0.62467865       0.00000000
Si      -1.02011238       1.46678418      -2.87943326       0.00000000
Si      -2.79529884       0.15732882      -1.96784563       0.00000000
Si      -2.87570628      -0.52585749       1.87523468       0.00000000
Si       1.95443252      -1.80001242       2.24920618       0.00000000
Si      -3.35754819       1.08292662       0.18987984       0.00000000
Si      -1.18161144       0.06657723       3.33536408       0.00000000
