10
Lattice="16.28999089631971 0.0 0.0 0.0 16.28999089631971 0.0 0.0 0.0 34.24959146834617" Properties=species:S:1:pos:R:3:initial_magmoms:R:1 pbc="T T T"
Si       0.42508755      -0.08162919       2.31565042       0.00000000
Si       1.87400160       0.67792464      -1.27254428       0.00000000
Si      -1.73543886       1.70582364      -0.19905874       0.00000000
Si      -0.85758705      -2.05254000      -1.19126996       0.00000000
Si       0.54069768       2.01433995      -2.68486123       0.00000000
Si      -2.20560084      -0.71491923      -2.65739304       0.00000000
Si      -1.90110816       0.35807049       3.00910229       0.00000000
Si      -0.72997119       3.44097744      -1.35220888       0.00000000
Si       0.73150245      -2.37477249       2.87426157       0.00000000
Si      -3.54889053       0.65269143      -1.25452899       0.00000000
