10
Lattice="16.28999089631971 0.0 0.0 0.0 16.28999089631971 0.0 0.0 0.0 34.24959146834617" Properties=species:S:1:pos:R:3:initial_magmoms:R:1 pbc="T T T"
Si      -1.35672750      -1.35729909      -1.35765456       0.00000000
Si       1.35702216      -1.35778779       1.35724357       0.00000000
Si       1.35791811       1.35777150      -1.35720932       0.00000000
Si      -1.35838142       1.35941679       1.35618183       0.00000000
Si      -2.71369313       2.71502172      -0.00034250       0.00000000
Si       2.71526607      -2.71432125      -0.00013700       0.00000000
Si      -2.71416554      -2.71547784      -0.00071924       0.00000000
Si      -2.71493117       0.00092853      -2.71476114       0.00000000
Si       0.00101650      -2.71500543      -2.71496663       0.00000000
Si       0.00027367       2.71538010      -2.71482963       0.00000000
