10
Lattice="16.28999089631971 0.0 0.0 0.0 16.28999089631971 0.0 0.0 0.0 34.24959146834617" Properties=species:S:1:pos:R:3:initial_magmoms:R:1 pbc="T T T"
Si      -1.34648483      -1.34319195      -1.37936882       0.00000000
Si      -1.34710385       1.38815235       1.37799883       0.00000000
Si       1.27005474      -1.43904231       1.40145982       0.00000000
Si       1.37162289       1.37156913      -1.37327239       0.00000000
Si       2.58772026      -0.09231543       2.77027975       0.00000000
Si      -2.70712337      -2.67061518      -0.01582332       0.00000000
Si      -2.68040777       2.72456766      -0.03431811       0.00000000
Si       2.72211276      -2.69420310      -0.01274086       0.00000000
Si       0.13549045       2.87147088       2.54200610       0.00000000
Si      -2.70179654       0.01241298      -2.73589315       0.00000000
