10
Lattice="16.28999089631971 0.0 0.0 0.0 16.28999089631971 0.0 0.0 0.0 34.24959146834617" Properties=species:S:1:pos:R:3:initial_magmoms:R:1 pbc="T T T"
Si      -1.72602324       1.19435022       0.96546227       0.00000000
Si      -1.31766552      -1.34672688      -1.36881994       0.00000000
Si       1.55828511       1.43174439      -1.18287880       0.00000000
Si       0.08389350      -1.31217579       2.07891711       0.00000000
Si       2.03318748      -1.58154723      -0.63615227       0.00000000
Si       2.27085858      -0.66933981       2.48004855       0.00000000
Si       3.39550389       0.72782091       0.95070069       0.00000000
Si      -2.58772026       0.09231543      -2.77027975       0.00000000
Si       0.13439250      -2.60188767      -2.78302061       0.00000000
Si      -2.23647039      -3.12258123      -0.13014852       0.00000000
