10
Lattice="16.28999089631971 0.0 0.0 0.0 16.28999089631971 0.0 0.0 0.0 34.24959146834617" Properties=species:S:1:pos:R:3:initial_magmoms:R:1 pbc="T T T"
Si      -1.27257480       1.39536882       1.42409881       0.00000000
Si       1.74234582       1.14261318      -1.13963319       0.00000000
Si       1.41569874      -1.33029027       1.40099402       0.00000000
Si      -1.77510501      -0.85385664      -1.46012396       0.00000000
Si       0.78172452       1.60803055      -3.21764273       0.00000000
Si      -2.62319336       2.68946501       0.01698438       0.00000000
Si      -2.69401739      -2.65165362      -0.04038372       0.00000000
Si       2.74582611      -2.62643670      -0.14627666       0.00000000
Si      -2.64591954       0.04116483       2.78036969       0.00000000
Si       0.07027506      -2.67336819       2.78492489       0.00000000
