10
Lattice="16.28999089631971 0.0 0.0 0.0 16.28999089631971 0.0 0.0 0.0 34.24959146834617" Properties=species:S:1:pos:R:3:initial_magmoms:R:1 pbc="T T T"
Si      -1.35303993       1.35188436       1.35823681       0.00000000
Si      -1.35548641      -1.35816246      -1.35645583       0.00000000
Si       1.35959435       1.35624998      -1.35652433       0.00000000
Si       1.36091384      -1.35682668       1.36357975       0.00000000
Si      -2.69111682      -0.00382815       2.70253402       0.00000000
Si      -2.71203318       2.71465424       0.00164398       0.00000000
Si      -2.71359702      -0.00065160      -2.71345965       0.00000000
Si       0.00149542       2.71430726      -2.71376790       0.00000000
Si      -2.71250559      -2.71598283       0.00095899       0.00000000
Si       0.00146121      -2.71562445      -2.71352815       0.00000000
