10
Lattice="16.28999089631971 0.0 0.0 0.0 16.28999089631971 0.0 0.0 0.0 34.53561885213415" Properties=species:S:1:pos:R:3:initial_magmoms:R:1 pbc="T T T"
Si       1.35671265      -1.35732713       1.35700883       0.00000000
Si      -1.35747828       1.35661002       1.35697429       0.00000000
Si       1.35689184       1.35792951      -1.35655987       0.00000000
Si      -1.35816246      -1.35780007      -1.35780315       0.00000000
Si       0.00166158       2.71206834      -2.71270531       0.00000000
Si       2.71288773       0.00047241       2.71408673       0.00000000
Si       0.00079821       2.71337154       2.71439755       0.00000000
Si      -2.71435383       0.00068581       2.71429394       0.00000000
Si      -2.71384884       0.00302180      -2.71481198       0.00000000
Si       2.71469592       2.71473990       0.00041443       0.00000000
