10
Lattice="16.28999089631971 0.0 0.0 0.0 16.28999089631971 0.0 0.0 0.0 34.53561885213415" Properties=species:S:1:pos:R:3:initial_magmoms:R:1 pbc="T T T"
Si      -1.12233213      -0.53215195       2.01025043       0.00000000
Si       2.33852724      -0.37999683       0.00124328       0.00000000
Si      -1.14673455      -0.79184110      -1.95471712       0.00000000
Si      -0.48405735       2.54016812       0.93916214       0.00000000
Si      -0.38771829       2.96263298      -1.35331352       0.00000000
Si      -2.24914401      -2.26726242       1.08694014       0.00000000
Si      -2.11361121       1.56566774       2.35747173       0.00000000
Si       2.94200658       1.23955823      -1.64766076       0.00000000
Si       1.02198573       1.92864152      -2.89166898       0.00000000
Si       1.78556319       2.77924016       1.71914953       0.00000000
