10
Lattice="16.28999089631971 0.0 0.0 0.0 16.28999089631971 0.0 0.0 0.0 34.53561885213415" Properties=species:S:1:pos:R:3:initial_magmoms:R:1 pbc="T T T"
Si       1.50588018      -1.67222130      -0.63300371       0.00000000
Si      -2.33852724       0.37999683      -0.00124328       0.00000000
Si       0.60347934       1.61955506      -1.64890404       0.00000000
Si       0.75536730      -0.10742278       2.26640125       0.00000000
Si       0.95495238       3.38871422      -0.10488473       0.00000000
Si      -0.55296405       3.15923699       1.71790625       0.00000000
Si       3.56513166      -0.82424535       0.11769745       0.00000000
Si      -0.30418317      -1.96584855       3.24130778       0.00000000
Si       1.83212001      -1.46224320      -3.02452758       0.00000000
Si       3.10472739      -0.27544761       2.31088316       0.00000000
