10
Lattice="16.28999089631971 0.0 0.0 0.0 16.28999089631971 0.0 0.0 0.0 34.53561885213415" Properties=species:S:1:pos:R:3:initial_magmoms:R:1 pbc="T T T"
Si       0.09633906       0.42246486      -2.29247566       0.00000000
Si      -1.62955386      -0.97450038       1.41830959       0.00000000
Si       2.26962054       0.23907204       0.77998739       0.00000000
Si      -0.02005299       2.45436543       0.29037565       0.00000000
Si       0.48405735      -2.54016812      -0.93916214       0.00000000
Si      -0.63827478      -3.07232006       1.07108828       0.00000000
Si       0.83098548       2.65373874      -1.89338183       0.00000000
Si       1.71815517       2.26356066       1.81135969       0.00000000
Si      -0.75046401      -0.31387572       3.48661442       0.00000000
Si      -2.13846975       0.33252777      -3.07598568       0.00000000
