10
Lattice="16.28999089631971 0.0 0.0 0.0 16.28999089631971 0.0 0.0 0.0 34.53561885213415" Properties=species:S:1:pos:R:3:initial_magmoms:R:1 pbc="T T T"
Si       1.37024964      -1.23356025       1.50327416       0.00000000
Si       1.66638555       1.19356830      -1.23066853       0.00000000
Si      -1.11456180      -1.44502074      -1.60165035       0.00000000
Si      -1.34317566       1.47880620       1.48091925       0.00000000
Si      -2.70257616      -2.63259432      -0.03885605       0.00000000
Si      -2.62879875      -0.05807385      -2.76733175       0.00000000
Si       2.68843644      -2.73540051       0.23182047       0.00000000
Si       0.52852905       2.54236401      -2.84963017       0.00000000
Si       0.02383227      -2.58937695       2.87563409       0.00000000
Si      -2.79020007       2.73134430      -0.01942284       0.00000000
