10
Lattice="16.28999089631971 0.0 0.0 0.0 16.28999089631971 0.0 0.0 0.0 34.53561885213415" Properties=species:S:1:pos:R:3:initial_magmoms:R:1 pbc="T T T"
Si       1.34030862       1.75563846       0.77556683       0.00000000
Si       0.56959614      -2.06632134       0.99062024       0.00000000
Si      -2.37695535       0.11886813       0.14004201       0.00000000
Si       0.90455112      -0.54074655      -2.17156639       0.00000000
Si      -0.12577509       3.56816160       0.39536399       0.00000000
Si      -1.07803962      -1.21117779      -3.23837225       0.00000000
Si      -0.93832029      -2.29579857       2.81341123       0.00000000
Si      -3.11160177      -2.11240575      -0.25905182       0.00000000
Si       3.55034034       1.27345446       0.10239817       0.00000000
Si       0.21812310      -3.83548050      -0.55339907       0.00000000
