10
Lattice="16.28999089631971 0.0 0.0 0.0 16.28999089631971 0.0 0.0 0.0 34.53561885213415" Properties=species:S:1:pos:R:3:initial_magmoms:R:1 pbc="T T T"
Si      -2.16660488       0.71081415      -0.57691784       0.00000000
Si       1.45994727       1.37248137      -1.27053159       0.00000000
Si       0.55525768      -2.20960003      -0.75170270       0.00000000
Si      -0.23051002       0.38222856       2.38199203       0.00000000
Si      -3.25611266      -0.74787390       0.93146070       0.00000000
Si       1.16565213       0.04425993      -3.27114657       0.00000000
Si      -0.15573566      -2.04655342      -2.96436650       0.00000000
Si       1.96886316       0.06545322       3.22376368       0.00000000
Si      -2.24517155       3.03971400      -0.12170359       0.00000000
Si       2.93573982      -2.29205562      -1.08842517       0.00000000
