10
Lattice="16.28999089631971 0.0 0.0 0.0 16.28999089631971 0.0 0.0 0.0 34.53561885213415" Properties=species:S:1:pos:R:3:initial_magmoms:R:1 pbc="T T T"
Si      -1.35739683       1.35725022      -1.35818304       0.00000000
Si       1.35754344       1.35742941       1.35797583       0.00000000
Si       1.35739683      -1.35772263      -1.35797583       0.00000000
Si      -1.35769005      -1.35871632       1.35897736       0.00000000
Si       2.71394658      -0.00130320      -2.71491559       0.00000000
Si      -2.71497285       2.71450044       0.00006907       0.00000000
Si       2.71515204       2.71466334      -0.00003454       0.00000000
Si      -0.00045612       2.71423980      -2.71564083       0.00000000
Si      -2.71528236      -0.00043983      -2.71467384       0.00000000
Si      -2.71523349      -2.71533123      -0.00013814       0.00000000
