10
Lattice="16.28999089631971 0.0 0.0 0.0 16.28999089631971 0.0 0.0 0.0 34.53561885213415" Properties=species:S:1:pos:R:3:initial_magmoms:R:1 pbc="T T T"
Si      -2.21763915      -0.11864007       0.51699850       0.00000000
Si       1.49167530       0.08667909       1.79412640       0.00000000
Si       0.08175951       1.25735994      -2.05680447       0.00000000
Si      -2.04191892      -2.35263438      -0.14311568       0.00000000
Si      -0.65114388      -2.53711863      -2.03273313       0.00000000
Si       2.53584801       2.06601183       1.08766539       0.00000000
Si       1.91909232       2.65285908      -1.41074628       0.00000000
Si      -0.03797199       0.00024435       3.67003320       0.00000000
Si      -2.31257727      -0.00306252       2.88334589       0.00000000
Si       0.77397048      -0.47392497      -3.60417373       0.00000000
