10
Lattice="16.28999089631971 0.0 0.0 0.0 16.28999089631971 0.0 0.0 0.0 34.53561885213415" Properties=species:S:1:pos:R:3:initial_magmoms:R:1 pbc="T T T"
Si      -1.59480729      -1.73920185      -0.37837245       0.00000000
Si      -1.01643084       2.15695890       0.25083234       0.00000000
Si       0.55386000      -0.85398696       2.17761013       0.00000000
Si       1.98931851       0.30442752      -1.71023934       0.00000000
Si       2.10292497      -2.18447271       0.69506425       0.00000000
Si       0.26611344      -3.24008100      -0.35751293       0.00000000
Si      -1.69997553       2.12245668      -2.17491635       0.00000000
Si       1.13746554       3.27156957       0.41739772       0.00000000
Si       2.45325771       2.64385071      -1.54374303       0.00000000
Si       1.55650950       0.79439814       3.65266664       0.00000000
