10
Lattice="16.28999089631971 0.0 0.0 0.0 16.28999089631971 0.0 0.0 0.0 34.53561885213415" Properties=species:S:1:pos:R:3:initial_magmoms:R:1 pbc="T T T"
Si      -0.46752300       2.29187268      -0.36562880       0.00000000
Si       2.23480881       0.08993709       0.78351002       0.00000000
Si      -1.45994727      -1.37248137       1.27053159       0.00000000
Si      -0.29429514      -1.32822144      -2.00061498       0.00000000
Si       1.84865436      -2.35607320      -1.78659763       0.00000000
Si      -1.58584127       2.14547445      -2.50524973       0.00000000
Si      -0.90468958      -3.58208140       0.51882889       0.00000000
Si      -3.62655215      -0.66166722       0.69361376       0.00000000
Si       2.13846975      -0.33252777       3.07598568       0.00000000
Si       1.68704127       3.33119097      -0.49931626       0.00000000
