10
Lattice="16.28999089631971 0.0 0.0 0.0 16.28999089631971 0.0 0.0 0.0 34.53561885213415" Properties=species:S:1:pos:R:3:initial_magmoms:R:1 pbc="T T T"
Si      -1.73080273      -0.97523832       1.30816715       0.00000000
Si       1.07344584       1.90421955       1.06361684       0.00000000
Si       1.91796831      -1.51523716      -0.12691782       0.00000000
Si      -1.40724749      -0.91866803      -1.92477407       0.00000000
Si      -0.27179865      -2.13338268       2.64702059       0.00000000
Si       2.44081215       0.59903217       2.59594929       0.00000000
Si       1.07219151      -3.35783231       1.19341904       0.00000000
Si       2.49698007      -1.54728447      -2.45534508       0.00000000
Si      -2.13536813      -3.07697642      -0.96516683       0.00000000
Si       0.26223642      -1.30095687      -3.66122596       0.00000000
