10
Lattice="16.28999089631971 0.0 0.0 0.0 16.28999089631971 0.0 0.0 0.0 34.53561885213415" Properties=species:S:1:pos:R:3:initial_magmoms:R:1 pbc="T T T"
Si      -1.80592569      -0.93712135       1.20566365       0.00000000
Si       0.94237650       1.76735097       1.31086266       0.00000000
Si       0.88922223      -0.42818265      -2.21685750       0.00000000
Si      -0.35188029      -2.16841481       2.57245297       0.00000000
Si       2.12327118       1.57960872      -2.15856135       0.00000000
Si      -1.23228963      -0.11689704      -3.32755816       0.00000000
Si       2.36767005       0.52409817       2.59985009       0.00000000
Si       1.08722718      -3.41497763       0.95279371       0.00000000
Si       2.62332531       2.69527824       0.04095201       0.00000000
Si      -3.60411363      -1.54929955      -0.15034852       0.00000000
