10
Lattice="16.28999089631971 0.0 0.0 0.0 16.28999089631971 0.0 0.0 0.0 34.53561885213415" Properties=species:S:1:pos:R:3:initial_magmoms:R:1 pbc="T T T"
Si       1.37712402       1.32094307      -1.35123447       0.00000000
Si      -1.35754344       1.35608060       1.35973715       0.00000000
Si       1.35645201      -1.35947887       1.35818304       0.00000000
Si      -1.34242632      -1.37156991      -1.37863159       0.00000000
Si      -0.04816953       2.56419587      -2.64022191       0.00000000
Si      -2.71277370       2.71021943       0.00359171       0.00000000
Si       0.00026064       2.71289099       2.71671144       0.00000000
Si      -2.71443528      -0.00184892       2.71629701       0.00000000
Si       2.71524978      -0.00132601       2.71643515       0.00000000
Si       2.71257822      -2.71924476      -0.00348810       0.00000000
