10
Lattice="16.28999089631971 0.0 0.0 0.0 16.28999089631971 0.0 0.0 0.0 34.53561885213415" Properties=species:S:1:pos:R:3:initial_magmoms:R:1 pbc="T T T"
Si      -2.04374340      -0.53383959      -1.01427716       0.00000000
Si       0.80946639       2.20178898       0.22064819       0.00000000
Si       1.48172211      -0.34538058      -1.82282552       0.00000000
Si       0.08821035      -1.41143076       1.96583759       0.00000000
Si      -0.72625707       2.79129150       1.94224975       0.00000000
Si       0.99139311      -2.57952476      -2.18558786       0.00000000
Si       3.15558477       1.52994051       0.55274289       0.00000000
Si      -1.35796698      -2.41149992      -2.23006976       0.00000000
Si       2.21599386      -0.91934244       2.76889479       0.00000000
Si       3.47674212      -1.22574105       0.77380551       0.00000000
