10
Lattice="16.28999089631971 0.0 0.0 0.0 16.28999089631971 0.0 0.0 0.0 34.53561885213415" Properties=species:S:1:pos:R:3:initial_magmoms:R:1 pbc="T T T"
Si      -1.34263809       1.31018841      -1.39667646       0.00000000
Si       1.34807895       1.36479249       1.36279700       0.00000000
Si      -1.36879983      -1.35003375       1.35803108       0.00000000
Si       1.31848002      -1.49452605      -1.30841028       0.00000000
Si      -2.43931347      -0.28554741      -2.74278036       0.00000000
Si       2.69975799       2.70721881      -0.01272984       0.00000000
Si       2.70275535       0.00521280       2.71914966       0.00000000
Si       2.70847314      -2.71818198       0.03826549       0.00000000
Si      -0.01078398      -2.70917361       2.71870069       0.00000000
Si      -2.71832859       2.71756296      -0.01007059       0.00000000
