10
Lattice="16.28999089631971 0.0 0.0 0.0 16.28999089631971 0.0 0.0 0.0 34.53561885213415" Properties=species:S:1:pos:R:3:initial_magmoms:R:1 pbc="T T T"
Si       1.30834764      -1.33643160      -1.31473721       0.00000000
Si       1.63157382       1.02317490       1.26300282       0.00000000
Si      -0.81098136      -1.71165546       1.34243479       0.00000000
Si      -1.40704875       1.38302100      -1.27743872       0.00000000
Si       0.21359448       1.73978829       2.95849544       0.00000000
Si       3.17860254      -0.90539820       1.34516311       0.00000000
Si      -0.83738745      -0.54866349       3.47297284       0.00000000
Si       2.43597402      -2.78809866       0.11037590       0.00000000
Si       2.65988007       0.03360627      -2.63948975       0.00000000
Si      -2.72937321       2.55546117       0.26070953       0.00000000
