10
Lattice="16.28999089631971 0.0 0.0 0.0 16.28999089631971 0.0 0.0 0.0 34.53561885213415" Properties=species:S:1:pos:R:3:initial_magmoms:R:1 pbc="T T T"
Si       0.51724008      -0.84768273      -2.09472460       0.00000000
Si      -2.21003172       0.48218400       0.67316866       0.00000000
Si       1.05039549       2.13097635      -0.08323089       0.00000000
Si       0.43251579      -1.56033765       1.86817081       0.00000000
Si       2.79904554      -0.75043143      -1.89023908       0.00000000
Si      -1.23989706       0.26057484      -3.25532925       0.00000000
Si      -2.06435025       0.86521077       2.99948924       0.00000000
Si      -3.55034034      -1.27345446      -0.10239817       0.00000000
Si       2.78845704       2.13723171       1.47480989       0.00000000
Si      -0.43148952      -2.87946927      -2.55315066       0.00000000
