10
Lattice="16.28999089631971 0.0 0.0 0.0 16.28999089631971 0.0 0.0 0.0 34.53561885213415" Properties=species:S:1:pos:R:3:initial_magmoms:R:1 pbc="T T T"
Si      -1.98259074      -0.67043124      -1.06680586       0.00000000
Si      -0.90455112       0.54074655       2.17156639       0.00000000
Si       2.21429970      -1.06526826      -0.27918610       0.00000000
Si       1.40589216       2.07477585      -0.98136469       0.00000000
Si       3.16302930       0.96651828       0.17923996       0.00000000
Si      -0.33495498      -1.52557479       3.16218664       0.00000000
Si       1.43229825       0.91178388      -3.11190275       0.00000000
Si      -2.60644887      -2.60565066       0.37415910       0.00000000
Si      -3.17314539       1.48511043      -1.25992915       0.00000000
Si      -0.68642802      -3.29473395       1.61816733       0.00000000
