10
Lattice="16.28999089631971 0.0 0.0 0.0 16.28999089631971 0.0 0.0 0.0 34.53561885213415" Properties=species:S:1:pos:R:3:initial_magmoms:R:1 pbc="T T T"
Si      -0.80946639      -2.20178898      -0.22064819       0.00000000
Si      -1.53572346       0.58950252       1.72160156       0.00000000
Si       0.46602432       1.51829316      -1.81132515       0.00000000
Si       2.34611838      -0.67184847       0.33209470       0.00000000
Si       0.67225572      -2.54716956      -2.04347371       0.00000000
Si       0.02111184       0.44000919       3.47352541       0.00000000
Si       2.11186818       2.93601186      -0.87910467       0.00000000
Si       2.93255838      -2.06410590      -1.47059654       0.00000000
Si      -0.72125604      -3.61321974       1.74518940       0.00000000
Si       1.86427647      -1.04733297       3.48488764       0.00000000
