10
Lattice="16.28999089631971 0.0 0.0 0.0 16.28999089631971 0.0 0.0 0.0 34.53561885213415" Properties=species:S:1:pos:R:3:initial_magmoms:R:1 pbc="T T T"
Si       0.67482954       0.88958061       2.04378453       0.00000000
Si      -1.67270607       1.65801249      -0.17171119       0.00000000
Si      -1.13730264      -2.06083161       0.29676474       0.00000000
Si       1.62808776       0.16213437      -1.80908033       0.00000000
Si       2.35633221       2.30798349       1.28123764       0.00000000
Si       2.54114226       2.23813197      -1.13245811       0.00000000
Si      -3.41958051       0.31884417      -1.05047051       0.00000000
Si      -2.69413794      -1.91133828      -1.45515911       0.00000000
Si       0.70586199      -3.54817377       0.30812696       0.00000000
Si       1.03470822      -0.84160656       3.48499125       0.00000000
