10
Lattice="16.28999089631971 0.0 0.0 0.0 16.28999089631971 0.0 0.0 0.0 34.53561885213415" Properties=species:S:1:pos:R:3:initial_magmoms:R:1 pbc="T T T"
Si      -1.33722981      -1.35293337      -1.37230812       0.00000000
Si       1.36344042      -1.28446650       1.45001330       0.00000000
Si       1.37583711       1.36262592      -1.37465654       0.00000000
Si      -1.44713844       1.20189249       1.51172849       0.00000000
Si       2.04045282       0.51937407       2.85861838       0.00000000
Si       0.26801937       2.17227150       2.83057544       0.00000000
Si      -2.69340489      -2.71868697      -0.00887566       0.00000000
Si      -2.70032814       2.71665072       0.02099767       0.00000000
Si       2.73365748      -2.69171073       0.00935916       0.00000000
Si      -2.69876430       0.00519651      -2.73024941       0.00000000
