10
Lattice="16.28999089631971 0.0 0.0 0.0 16.28999089631971 0.0 0.0 0.0 34.53561885213415" Properties=species:S:1:pos:R:3:initial_magmoms:R:1 pbc="T T T"
Si       1.41797934      -0.71661339      -1.69549262       0.00000000
Si       1.92974598       0.23472261       1.46400024       0.00000000
Si      -1.05098193      -2.28845178       0.51447740       0.00000000
Si      -1.49089338       1.88250498      -1.02415435       0.00000000
Si      -0.21359448      -1.73978829      -2.95849544       0.00000000
Si       2.43620208       1.07745318      -2.77704520       0.00000000
Si       0.70615521      -3.39670935       1.67508206       0.00000000
Si       1.23931062      -0.41805027       3.68657577       0.00000000
Si      -3.05978328       2.31186051       0.85789979       0.00000000
Si       2.79037926       2.48233536       1.25274574       0.00000000
