10
Lattice="16.28999089631971 0.0 0.0 0.0 16.28999089631971 0.0 0.0 0.0 34.53561885213415" Properties=species:S:1:pos:R:3:initial_magmoms:R:1 pbc="T T T"
Si      -0.46040427       0.54879774       2.19318570       0.00000000
Si       1.77451857      -1.51493742      -0.28015310       0.00000000
Si      -2.05925148      -0.84797595      -0.75070117       0.00000000
Si       0.72883089       2.19638789      -0.49990336       0.00000000
Si       3.39596001      -0.09749565      -1.15145271       0.00000000
Si      -2.80976436       0.71682257       2.14870380       0.00000000
Si       3.04774497       1.95658280      -0.05377199       0.00000000
Si      -1.73301165      -0.63799785      -3.14222504       0.00000000
Si      -3.56513166       0.82424535      -0.11769745       0.00000000
Si       1.69655463      -2.81417895       1.68136754       0.00000000
