10
Lattice="16.28999089631971 0.0 0.0 0.0 16.28999089631971 0.0 0.0 0.0 34.53561885213415" Properties=species:S:1:pos:R:3:initial_magmoms:R:1 pbc="T T T"
Si       1.88820648       0.87738103      -1.26317550       0.00000000
Si      -1.35907470      -1.90854847      -0.80789218       0.00000000
Si       1.37968155      -0.63455644       1.96873859       0.00000000
Si      -1.37940462       2.06786400       0.33088595       0.00000000
Si       1.04490576       2.93250462      -0.54676822       0.00000000
Si      -1.28744757       1.65932709       2.62028794       0.00000000
Si      -0.24175989      -2.05199821       2.84003820       0.00000000
Si       1.03146651       1.41952200       3.06641931       0.00000000
Si      -3.49387920       1.19971452      -0.42713677       0.00000000
Si      -2.01627846      -0.53706079       3.12019130       0.00000000
