10
Lattice="16.28999089631971 0.0 0.0 0.0 16.28999089631971 0.0 0.0 0.0 34.53561885213415" Properties=species:S:1:pos:R:3:initial_magmoms:R:1 pbc="T T T"
Si       0.84330072      -2.05512359      -0.71640728       0.00000000
Si       1.07606853      -0.05429457       2.10480900       0.00000000
Si       0.80308071       2.17673496      -1.20104589       0.00000000
Si      -2.42431038      -0.86464062       0.87765417       0.00000000
Si      -1.04490576      -2.93250462       0.54676822       0.00000000
Si      -3.12210882       1.20370068       0.00300460       0.00000000
Si       0.10842624       3.33273852       0.66591617       0.00000000
Si       0.99750186       2.27460528       2.56002325       0.00000000
Si      -2.39449968       1.31909904      -2.49216072       0.00000000
Si      -0.01343925      -1.51298262       3.61318753       0.00000000
