10
Lattice="16.28999089631971 0.0 0.0 0.0 16.28999089631971 0.0 0.0 0.0 34.53561885213415" Properties=species:S:1:pos:R:3:initial_magmoms:R:1 pbc="T T T"
Si       1.23221504      -1.75911542      -0.96803394       0.00000000
Si       1.47403716       1.83472641      -0.14425536       0.00000000
Si      -2.10971790       0.48114144      -1.03192487       0.00000000
Si      -0.17795196      -0.59827794       2.35001203       0.00000000
Si      -3.37046616       0.78754005       0.96316441       0.00000000
Si      -2.56888413      -0.94451049       2.33236432       0.00000000
Si       1.24303339       2.76685650       2.02617135       0.00000000
Si       3.42445841      -1.35891899      -0.19730210       0.00000000
Si       0.40373136      -1.77933131      -3.20794636       0.00000000
Si       0.66979593      -3.64158782       0.33827658       0.00000000
