10
Lattice="16.28999089631971 0.0 0.0 0.0 16.28999089631971 0.0 0.0 0.0 34.53561885213415" Properties=species:S:1:pos:R:3:initial_magmoms:R:1 pbc="T T T"
Si      -1.88284707       0.85434534      -1.10389714       0.00000000
Si      -1.40822163      -0.53383959       1.81480666       0.00000000
Si       1.49244093      -1.36477620      -1.42017451       0.00000000
Si       1.03837347       2.02802355       1.58860482       0.00000000
Si       0.28193103       0.40853691       3.12593945       0.00000000
Si       1.78496911       0.26632521      -3.20321497       0.00000000
Si      -2.04193521       3.06737442      -0.15271659       0.00000000
Si      -0.25106148       1.36793646      -3.41830293       0.00000000
Si      -3.90533202       0.06537177      -0.25653072       0.00000000
Si      -3.40527789       1.18104129       1.94298264       0.00000000
