10
Lattice="16.28999089631971 0.0 0.0 0.0 16.28999089631971 0.0 0.0 0.0 34.53561885213415" Properties=species:S:1:pos:R:3:initial_magmoms:R:1 pbc="T T T"
Si       0.81399079      -2.09658816      -0.79048622       0.00000000
Si       1.07874728       1.96501383      -0.82854449       0.00000000
Si       0.06366132      -0.01221750       2.43856141       0.00000000
Si      -2.08881783       0.67541598      -1.10890481       0.00000000
Si      -1.17920052      -3.28994469      -0.08481953       0.00000000
Si      -2.12981976       2.81615004      -0.12087473       0.00000000
Si      -1.20067074       0.56089728      -3.29418185       0.00000000
Si      -0.02477709       3.52507455       0.52459634       0.00000000
Si      -2.96912943      -1.91726784       0.94157964       0.00000000
Si       0.63762059       2.04346647      -3.10247452       0.00000000
