10
Lattice="16.28999089631971 0.0 0.0 0.0 16.28999089631971 0.0 0.0 0.0 34.53561885213415" Properties=species:S:1:pos:R:3:initial_magmoms:R:1 pbc="T T T"
Si      -0.75644244      -1.61948664       1.53733463       0.00000000
Si      -1.66050486       1.78287534       0.15779333       0.00000000
Si       1.89815220       0.91957050       1.42164024       0.00000000
Si      -1.03837347      -2.02802355      -1.58860482       0.00000000
Si      -2.44659510      -2.56186314       0.22620184       0.00000000
Si      -1.99886445      -0.27857529       2.94284531       0.00000000
Si      -3.08030868       1.03935087      -1.74132141       0.00000000
Si       0.71324136       2.44286469       2.88629666       0.00000000
Si      -3.38885757       0.94508064       1.59616955       0.00000000
Si       3.33610145       2.24591859       0.01298540       0.00000000
