10
Lattice="16.28999089631971 0.0 0.0 0.0 16.28999089631971 0.0 0.0 0.0 34.53561885213415" Properties=species:S:1:pos:R:3:initial_magmoms:R:1 pbc="T T T"
Si      -0.35987868       1.73118717      -1.44120672       0.00000000
Si       0.15908814      -2.21302908      -0.95118055       0.00000000
Si      -2.31692670      -0.16327467       0.72714786       0.00000000
Si       1.41980382       0.74352447       1.89911474       0.00000000
Si      -1.36334268      -1.88633313       2.09569923       0.00000000
Si      -0.30854889      -0.09427023       3.33749096       0.00000000
Si      -1.86339681      -3.00200265      -0.10381413       0.00000000
Si       3.08030868      -1.03935087       1.74132141       0.00000000
Si       2.04193521      -3.06737442       0.15271659       0.00000000
Si      -1.03470822       0.84160656      -3.48499125       0.00000000
