10
Lattice="16.28999089631971 0.0 0.0 0.0 16.28999089631971 0.0 0.0 0.0 34.53561885213415" Properties=species:S:1:pos:R:3:initial_magmoms:R:1 pbc="T T T"
Si      -1.35153243      -1.37003787       1.32475254       0.00000000
Si       1.35692442      -1.35669636      -1.35963354       0.00000000
Si      -1.36042677       1.35633798      -1.35952993       0.00000000
Si       1.36013355       1.37639097       1.38028585       0.00000000
Si       2.45312739      -0.18946899       2.78177658       0.00000000
Si      -2.65988007      -0.03360627       2.63948975       0.00000000
Si       2.71441899      -2.70972747      -0.00155410       0.00000000
Si      -2.71075374       2.71516833      -0.00138143       0.00000000
Si      -0.00053757      -2.71371852      -2.71664237       0.00000000
Si       2.71722097       2.71321353       0.00034536       0.00000000
