10
Lattice="16.28999089631971 0.0 0.0 0.0 16.28999089631971 0.0 0.0 0.0 34.53561885213415" Properties=species:S:1:pos:R:3:initial_magmoms:R:1 pbc="T T T"
Si       0.86063328       2.24761275      -0.21125450       0.00000000
Si      -0.69043536      -0.65277288       2.22257553       0.00000000
Si       2.04770187      -1.29132459       0.01070605       0.00000000
Si      -1.92974598      -0.23472261      -1.46400024       0.00000000
Si      -0.51176664      -0.95133600      -3.15949286       0.00000000
Si      -0.90637560       2.95277427       1.40960661       0.00000000
Si      -2.10285981       1.21437063       2.48483917       0.00000000
Si       1.05821469      -3.53418066       0.41556733       0.00000000
Si       2.95178058      -0.88518231       2.26125544       0.00000000
Si      -1.22359077      -3.63143196       0.21108182       0.00000000
