10
Lattice="16.28999089631971 0.0 0.0 0.0 16.28999089631971 0.0 0.0 0.0 34.53561885213415" Properties=species:S:1:pos:R:3:initial_magmoms:R:1 pbc="T T T"
Si      -1.35659862       1.35402480       1.36319071       0.00000000
Si       1.36010581      -1.36135530       1.36398503       0.00000000
Si      -1.35964485      -1.37526696      -1.36820528       0.00000000
Si       1.36600999       1.36464588      -1.37433536       0.00000000
Si      -2.71591767       2.70954828       0.00096700       0.00000000
Si       2.71728507       2.70941796       0.00801227       0.00000000
Si      -2.71132389      -2.71769328       0.00732156       0.00000000
Si       0.00218286       2.71114470       2.72016500       0.00000000
Si      -2.71305063      -0.00306252       2.72030315       0.00000000
Si       2.71722969      -2.71935486       0.00307367       0.00000000
