10
Lattice="16.28999089631971 0.0 0.0 0.0 16.28999089631971 0.0 0.0 0.0 34.53561885213415" Properties=species:S:1:pos:R:3:initial_magmoms:R:1 pbc="T T T"
Si       1.35941679      -1.35653346       1.35538565       0.00000000
Si      -1.35821133      -1.35681039      -1.35752686       0.00000000
Si       1.35738054       1.35775070      -1.35756140       0.00000000
Si      -1.35935163       1.36013269       1.36225825       0.00000000
Si       2.71663443      -0.01257588       2.70431315       0.00000000
Si       2.71225242      -2.71560816       0.00020721       0.00000000
Si      -0.00071676      -2.71381626      -2.71505373       0.00000000
Si      -2.71518462      -2.71396287      -0.00020721       0.00000000
Si       2.71451673       0.00039096      -2.71519187       0.00000000
Si       2.71420722       2.71551435      -0.00041443       0.00000000
