10
Lattice="16.28999089631971 0.0 0.0 0.0 16.28999089631971 0.0 0.0 0.0 34.53561885213415" Properties=species:S:1:pos:R:3:initial_magmoms:R:1 pbc="T T T"
Si       1.43571915      -1.22303691      -1.36136032       0.00000000
Si       1.80125046       1.06413189       1.12157938       0.00000000
Si      -1.28480859       1.50679798      -1.32886228       0.00000000
Si      -1.02931623      -1.75734891       1.49494417       0.00000000
Si       2.60964171      -2.59051725       0.14560225       0.00000000
Si       0.07850151      -2.56699449      -2.71028781       0.00000000
Si      -2.64026691       0.14967166      -2.70341522       0.00000000
Si       0.74311722      -3.41024634       1.52298711       0.00000000
Si      -2.74447404      -2.72772792       0.17609722       0.00000000
Si       1.35273789       1.31113064       3.38867135       0.00000000
