10
Lattice="16.28999089631971 0.0 0.0 0.0 16.28999089631971 0.0 0.0 0.0 34.53561885213415" Properties=species:S:1:pos:R:3:initial_magmoms:R:1 pbc="T T T"
Si      -1.52969616       1.17038763       1.41309471       0.00000000
Si      -0.07788249       1.02439665      -2.16783654       0.00000000
Si      -1.06031610      -2.15080128      -0.08381799       0.00000000
Si       2.22723396       0.34583670       0.82453836       0.00000000
Si      -1.72058238       2.61470790      -1.65543128       0.00000000
Si       2.78965307       2.22830910      -0.48177215       0.00000000
Si      -2.33373798      -0.53312283       2.81638129       0.00000000
Si       0.48000114      -3.65492214       0.94548217       0.00000000
Si      -3.24565218       2.09396547       0.01481579       0.00000000
Si      -3.10914198      -2.05879536       1.12993701       0.00000000
