10
Lattice="16.28999089631971 0.0 0.0 0.0 16.28999089631971 0.0 0.0 0.0 34.53561885213415" Properties=species:S:1:pos:R:3:initial_magmoms:R:1 pbc="T T T"
Si       2.27639718       0.49959801      -0.38020284       0.00000000
Si       0.23612355      -2.24469684      -0.82581618       0.00000000
Si      -2.01690725       1.07486307      -0.77573950       0.00000000
Si       0.66205818       1.80426411       2.79123935       0.00000000
Si      -3.43950171      -0.85985136      -0.62571669       0.00000000
Si       3.42031356      -0.33881571       1.62631774       0.00000000
Si       2.69122203       2.76620490      -0.57370602       0.00000000
Si      -1.90467078       1.50338781      -3.12872160       0.00000000
Si      -0.98880300      -2.59708212      -2.82408274       0.00000000
Si       2.40725475      -2.47954977      -1.96290207       0.00000000
