10
Lattice="16.28999089631971 0.0 0.0 0.0 16.28999089631971 0.0 0.0 0.0 34.53561885213415" Properties=species:S:1:pos:R:3:initial_magmoms:R:1 pbc="T T T"
Si       1.30647429      -1.31168709      -1.53887350       0.00000000
Si      -0.39669408      -1.38088701       2.02523889       0.00000000
Si      -1.41092577       1.38492693      -1.50540847       0.00000000
Si       1.68179589       1.32742323       1.48472162       0.00000000
Si       2.54285271      -2.67380802      -0.11248257       0.00000000
Si       2.71709055       2.83760397      -0.13859152       0.00000000
Si       2.67209757       0.03305241      -2.90410181       0.00000000
Si      -0.04207707      -2.68087788      -2.90323842       0.00000000
Si      -0.04178385       2.74734108      -2.90382553       0.00000000
Si       0.87667893      -3.67326468       1.31169807       0.00000000
