10
Lattice="16.28999089631971 0.0 0.0 0.0 16.28999089631971 0.0 0.0 0.0 34.53561885213415" Properties=species:S:1:pos:R:3:initial_magmoms:R:1 pbc="T T T"
Si      -1.32315429      -1.78447176      -0.70045181       0.00000000
Si       1.14873007      -0.49708935       1.98348531       0.00000000
Si      -1.59412215       1.72344942       0.40244379       0.00000000
Si       1.53069799       0.46323873      -1.81436429       0.00000000
Si      -1.47688302      -1.26931680      -3.10078227       0.00000000
Si       2.68608253       2.41647489      -1.02930016       0.00000000
Si       2.43510250       1.41338556       2.55501558       0.00000000
Si      -1.03170304       3.60592182      -0.90386672       0.00000000
Si       0.27516905       0.20957085      -3.84948037       0.00000000
Si      -0.22825548      -0.52468461       3.85383186       0.00000000
