10
Lattice="16.28999089631971 0.0 0.0 0.0 16.28999089631971 0.0 0.0 0.0 34.53561885213415" Properties=species:S:1:pos:R:3:initial_magmoms:R:1 pbc="T T T"
Si      -0.33811198       1.20977685      -2.06191574       0.00000000
Si       2.21260554      -1.05107967       0.22151158       0.00000000
Si      -0.36273757       2.55655164       0.36790815       0.00000000
Si      -1.33443512      -1.15800723       1.92152837       0.00000000
Si       0.34825576       2.39350503       2.58057195       0.00000000
Si      -1.34947079      -0.58855770      -3.30892856       0.00000000
Si      -1.07084433       0.67458519       3.46247401       0.00000000
Si       1.36510200      -3.33260820       0.87354443       0.00000000
Si      -3.21599528      -1.40828679      -1.93154371       0.00000000
Si      -3.53883050      -1.80724518       0.68964216       0.00000000
