10
Lattice="16.28999089631971 0.0 0.0 0.0 16.28999089631971 0.0 0.0 0.0 34.5300574570662" Properties=species:S:1:pos:R:3:initial_magmoms:R:1 pbc="T T T"
Si      -2.18649267      -0.64304775      -0.38487224       0.00000000
Si       0.11583819       2.08683601       1.05347811       0.00000000
Si       1.16719479      -0.29105343      -2.04404242       0.00000000
Si       1.12327695      -1.37518551       1.58893601       0.00000000
Si      -1.48921551      -2.71011843      -1.44432405       0.00000000
Si       2.61255762       1.55768238      -1.88996922       0.00000000
Si      -2.90112357      -0.97200801       1.87584642       0.00000000
Si      -0.66119481       3.50558261      -0.62375131       0.00000000
Si       3.40441452      -0.91271241       1.05247674       0.00000000
Si       2.24678196       2.22087176       1.96013434       0.00000000
