10
Lattice="16.28999089631971 0.0 0.0 0.0 16.28999089631971 0.0 0.0 0.0 34.5300574570662" Properties=species:S:1:pos:R:3:initial_magmoms:R:1 pbc="T T T"
Si       1.31122771       0.38612187      -1.95561090       0.00000000
Si       0.16098104      -2.32933968       0.52230194       0.00000000
Si      -2.36083869       0.44132868       0.03908805       0.00000000
Si       0.56556599       1.57770279       1.88306321       0.00000000
Si      -2.62592586      -0.63728109       2.26147832       0.00000000
Si      -0.54345721       3.51578178       1.04892014       0.00000000
Si       0.04726544      -0.54428148      -3.75107130       0.00000000
Si      -1.57145787      -2.72647359       2.16399991       0.00000000
Si      -2.69486514       2.82419634       0.18684225       0.00000000
Si       3.53574124      -0.44597133      -1.76593719       0.00000000
