10
Lattice="16.28999089631971 0.0 0.0 0.0 16.28999089631971 0.0 0.0 0.0 34.5300574570662" Properties=species:S:1:pos:R:3:initial_magmoms:R:1 pbc="T T T"
Si      -1.12431951       1.56996504      -1.32880713       0.00000000
Si       1.34073216       1.36515087       1.35967011       0.00000000
Si      -1.38067524      -1.34449515       1.35711489       0.00000000
Si       1.15882173      -1.43961409      -1.50144370       0.00000000
Si      -2.18769813      -0.25501995      -2.50752031       0.00000000
Si       2.21605902       0.19080477      -2.81282147       0.00000000
Si      -0.80671338      -2.28961652      -2.77746267       0.00000000
Si       2.66755266       2.72631069       0.01774501       0.00000000
Si       2.67817374      -2.72113766      -0.03871512       0.00000000
Si       2.69462664       0.01332522       2.71418144       0.00000000
