10
Lattice="16.28999089631971 0.0 0.0 0.0 16.28999089631971 0.0 0.0 0.0 34.5300574570662" Properties=species:S:1:pos:R:3:initial_magmoms:R:1 pbc="T T T"
Si      -1.35609964       1.25659431      -1.51942697       0.00000000
Si      -1.76896969      -1.09491606       1.23997506       0.00000000
Si       1.34097280      -1.44344875      -1.49722413       0.00000000
Si       1.41679623       1.38813606       1.58865977       0.00000000
Si       0.32866333      -1.97672308       2.31966150       0.00000000
Si       2.35758771      -0.66642390       2.67829087       0.00000000
Si      -2.64245578       2.65577499      -0.13597944       0.00000000
Si       2.74426344       2.59880886      -0.02648457       0.00000000
Si      -0.00995998       2.62549188      -2.87445624       0.00000000
Si       2.70484164      -0.08861760      -2.87635539       0.00000000
