10
Lattice="16.28999089631971 0.0 0.0 0.0 16.28999089631971 0.0 0.0 0.0 34.5300574570662" Properties=species:S:1:pos:R:3:initial_magmoms:R:1 pbc="T T T"
Si       0.86547141       1.90814381       1.11394028       0.00000000
Si      -1.80356364       0.04316687       1.54397785       0.00000000
Si       1.47018879      -1.90473336       0.27775994       0.00000000
Si      -1.06508907       1.15676756      -1.85965181       0.00000000
Si      -1.34653140       2.35391966       1.74093741       0.00000000
Si       0.83352672       2.52436193      -2.30526245       0.00000000
Si      -1.02653064      -1.37557973       3.22120727       0.00000000
Si       0.02482596      -3.75346917       0.12368673       0.00000000
Si       1.76599890       3.44157038      -0.36881575       0.00000000
Si      -1.74936681      -0.18584609      -3.65784009       0.00000000
