10
Lattice="16.28999089631971 0.0 0.0 0.0 16.28999089631971 0.0 0.0 0.0 34.5300574570662" Properties=species:S:1:pos:R:3:initial_magmoms:R:1 pbc="T T T"
Si       1.38326535      -0.43295562       1.79932777       0.00000000
Si       0.85827123       0.96537798      -1.93289011       0.00000000
Si      -0.42671655      -2.20345056      -0.68531843       0.00000000
Si      -1.88318916       1.19998656       0.86142182       0.00000000
Si       0.11705994      -2.11545198       2.80467095       0.00000000
Si      -3.18528144      -0.59590449       1.77843707       0.00000000
Si       1.45226979       3.21719355      -1.37837160       0.00000000
Si      -2.55766032      -2.33748631      -1.59197466       0.00000000
Si      -2.90390427       2.34751932      -0.96649685       0.00000000
Si      -0.66565827       0.94623723      -3.69924165       0.00000000
