10
Lattice="16.28999089631971 0.0 0.0 0.0 16.28999089631971 0.0 0.0 0.0 34.5300574570662" Properties=species:S:1:pos:R:3:initial_magmoms:R:1 pbc="T T T"
Si      -1.35081567       1.35695700       1.35865493       0.00000000
Si       1.38396582       1.34851878      -1.34154528       0.00000000
Si       1.36285398      -1.36151820       1.35803339       0.00000000
Si      -1.35018036      -1.36098063      -1.37801594       0.00000000
Si       0.25607880      -2.51491536      -2.68333226       0.00000000
Si       2.64813498      -0.08863389      -2.74542425       0.00000000
Si      -2.71058269       2.71075374      -0.00317677       0.00000000
Si      -2.71030414      -0.00175932       2.71585960       0.00000000
Si      -2.70719112      -2.72129337      -0.00120855       0.00000000
Si       0.00443088       2.71305063       2.71672285       0.00000000
