10
Lattice="16.28999089631971 0.0 0.0 0.0 16.28999089631971 0.0 0.0 0.0 34.5300574570662" Properties=species:S:1:pos:R:3:initial_magmoms:R:1 pbc="T T T"
Si       1.35899325      -1.35557235       1.35613423       0.00000000
Si      -1.35653346      -1.35653346      -1.35768809       0.00000000
Si       1.35883035       1.35803214      -1.35751544       0.00000000
Si      -1.36062225       1.36159965       1.35920741       0.00000000
Si      -2.71360286      -2.71379997       0.00100137       0.00000000
Si      -2.71443854       2.71352304      -0.00003453       0.00000000
Si      -2.71365988       0.00096111      -2.71547977       0.00000000
Si       0.00138465      -2.71420722      -2.71565242       0.00000000
Si       0.00107514       2.71577106      -2.71461651       0.00000000
Si       2.71598283       2.71472850       0.00117402       0.00000000
