10
Lattice="16.28999089631971 0.0 0.0 0.0 16.28999089631971 0.0 0.0 0.0 34.5300574570662" Properties=species:S:1:pos:R:3:initial_magmoms:R:1 pbc="T T T"
Si       0.28168668      -2.32455042      -0.28825708       0.00000000
Si      -1.93306914       0.73505367       1.15630868       0.00000000
Si      -0.12986388       0.55444644      -2.30408843       0.00000000
Si       2.10523815       0.82132551       0.84001318       0.00000000
Si       2.62528011      -2.42641179      -0.31664080       0.00000000
Si       3.07810953      -1.17615429       1.64884570       0.00000000
Si       1.52344080       2.33821773      -2.56862335       0.00000000
Si       3.27347550       1.83379788      -0.98469420       0.00000000
Si      -0.65096469      -1.38973248      -3.64658329       0.00000000
Si      -2.20621986       1.49507991      -2.94665863       0.00000000
