10
Lattice="16.28999089631971 0.0 0.0 0.0 16.28999089631971 0.0 0.0 0.0 34.5300574570662" Properties=species:S:1:pos:R:3:initial_magmoms:R:1 pbc="T T T"
Si      -0.58409424      -2.23505316       0.71408199       0.00000000
Si       1.60484193       0.98813511       1.55167806       0.00000000
Si      -1.94826771       1.48421448       0.04644295       0.00000000
Si       1.01382444      -0.09259236      -2.24227959       0.00000000
Si       1.11322602      -2.67792939       2.25892309       0.00000000
Si      -0.92352897      -0.44048160      -3.57973306       0.00000000
Si       1.48960647       2.21154669      -2.64362268       0.00000000
Si       3.73348881       0.18806805       0.72423383       0.00000000
Si       1.77349230       3.39659532       1.17070772       0.00000000
Si      -0.62218026      -3.78566568      -1.18220624       0.00000000
