10
Lattice="16.28999089631971 0.0 0.0 0.0 16.28999089631971 0.0 0.0 0.0 34.5300574570662" Properties=species:S:1:pos:R:3:initial_magmoms:R:1 pbc="T T T"
Si      -1.93735341      -0.34788924      -1.33745346       0.00000000
Si       0.47578203       2.30413905      -0.40134308       0.00000000
Si      -1.01382444       0.09259236       2.24227959       0.00000000
Si       1.69945425      -1.67586633      -1.17972007       0.00000000
Si       2.14122276       2.28250593      -2.06493312       0.00000000
Si      -2.65671981      -2.54554056      -0.76784532       0.00000000
Si      -1.56773331       3.32325774      -1.05620599       0.00000000
Si      -1.59791868      -2.14246080       2.95636158       0.00000000
Si       0.59101749       1.08072747       3.79395765       0.00000000
Si      -1.73270214       0.64620801      -3.53878039       0.00000000
