10
Lattice="16.28999089631971 0.0 0.0 0.0 16.28999089631971 0.0 0.0 0.0 34.5300574570662" Properties=species:S:1:pos:R:3:initial_magmoms:R:1 pbc="T T T"
Si       1.30049586      -1.44283788      -1.28705682       0.00000000
Si      -1.32861240      -1.35042471       1.36861340       0.00000000
Si       1.38572514       1.36643778       1.36799186       0.00000000
Si      -1.37902995       1.08655929      -1.65529246       0.00000000
Si       2.32217208       0.12655701      -2.63339038       0.00000000
Si       0.57132288       1.87747137      -3.05667288       0.00000000
Si      -2.67876018       2.70023040      -0.03283465       0.00000000
Si      -2.66774814      -2.71337643       0.02520350       0.00000000
Si      -2.69052156       0.00607617       2.72581807       0.00000000
Si       0.02440242      -2.70537804       2.72699209       0.00000000
