10
Lattice="16.28999089631971 0.0 0.0 0.0 16.28999089631971 0.0 0.0 0.0 34.5300574570662" Properties=species:S:1:pos:R:3:initial_magmoms:R:1 pbc="T T T"
Si       1.37902995      -1.08655929       1.65529246       0.00000000
Si      -1.22078889      -1.59233121      -1.47879685       0.00000000
Si       1.95035283       0.79091208      -1.40138041       0.00000000
Si      -1.29973023       1.61367111       1.62245781       0.00000000
Si      -2.47834431      -2.33005644       0.35209629       0.00000000
Si       2.67952581      -2.52939717       0.36823564       0.00000000
Si       2.62485657       2.75178825       0.21789514       0.00000000
Si       0.05041755      -2.43698400       3.02390586       0.00000000
Si       3.70120203      -0.96000228      -0.97809792       0.00000000
Si      -2.78866881       2.90124900       0.25800528       0.00000000
