10
Lattice="16.28999089631971 0.0 0.0 0.0 16.28999089631971 0.0 0.0 0.0 34.5300574570662" Properties=species:S:1:pos:R:3:initial_magmoms:R:1 pbc="T T T"
Si       1.30929246      -1.41296202       1.32996044       0.00000000
Si       1.34618931       1.35281934      -1.35830963       0.00000000
Si      -1.27462734       1.29376809       1.49518685       0.00000000
Si      -1.37321442      -1.35681039      -1.35810245       0.00000000
Si      -0.34349094      -2.42198091       2.66972741       0.00000000
Si      -2.00599947      -0.51715863       3.03312194       0.00000000
Si       2.67183693      -2.71026504      -0.02665722       0.00000000
Si      -2.70984150       2.67752214       0.00856346       0.00000000
Si       2.69630451       2.72013678       0.00545575       0.00000000
Si       2.70205488      -0.00043983      -2.71730986       0.00000000
