10
Lattice="16.28999089631971 0.0 0.0 0.0 16.28999089631971 0.0 0.0 0.0 34.5300574570662" Properties=species:S:1:pos:R:3:initial_magmoms:R:1 pbc="T T T"
Si      -1.34003169       1.35720135      -1.31780585       0.00000000
Si       1.40918274      -1.38715866      -1.30499519       0.00000000
Si       1.07777898       1.64056590       1.34839950       0.00000000
Si      -1.47105216      -1.18617264       1.48710682       0.00000000
Si       2.52084492       0.03746700       2.52031577       0.00000000
Si      -2.66823684      -0.00804726      -2.67822181       0.00000000
Si      -2.61430065       2.73865851       0.22513610       0.00000000
Si       2.73056238       2.64958479       0.00863252       0.00000000
Si       0.04805550       2.70573642      -2.67943037       0.00000000
Si      -2.62791909      -2.75099004       0.17299568       0.00000000
