10
Lattice="16.28999089631971 0.0 0.0 0.0 16.28999089631971 0.0 0.0 0.0 34.5300574570662" Properties=species:S:1:pos:R:3:initial_magmoms:R:1 pbc="T T T"
Si      -1.25755542      -0.73772523       1.83089313       0.00000000
Si       1.12187601      -1.96861392      -1.00589567       0.00000000
Si       1.22078889       1.59233121       1.47879685       0.00000000
Si      -2.67662619      -0.26741664      -0.89716045       0.00000000
Si      -2.38505148      -2.37210093       0.39706135       0.00000000
Si      -0.06792930      -2.20760451       3.15929281       0.00000000
Si       3.17114172       2.38324329       0.07741643       0.00000000
Si      -2.24867160       0.39540717      -3.27538496       0.00000000
Si       2.98049985      -2.64609873       0.47558866       0.00000000
Si      -0.53587584      -4.02092586       0.03011023       0.00000000
