10
Lattice="16.28999089631971 0.0 0.0 0.0 16.28999089631971 0.0 0.0 0.0 34.5300574570662" Properties=species:S:1:pos:R:3:initial_magmoms:R:1 pbc="T T T"
Si       1.35773892       1.35745597      -1.35799886       0.00000000
Si      -1.35726651      -1.35826020      -1.35786074       0.00000000
Si       1.35876519      -1.36107837       1.35703202       0.00000000
Si      -1.35799956       1.35733167       1.36165905       0.00000000
Si      -2.69726562      -0.03637557       2.72390510       0.00000000
Si       2.71474479       2.71324189      -0.00044889       0.00000000
Si       2.71463076      -2.71433754      -0.00196821       0.00000000
Si       0.01257588      -2.71389771       2.71534165       0.00000000
Si       2.70888039       0.00623907       2.72079740       0.00000000
Si      -2.71581993      -2.71417464      -0.00110496       0.00000000
