10
Lattice="16.28999089631971 0.0 0.0 0.0 16.28999089631971 0.0 0.0 0.0 34.5300574570662" Properties=species:S:1:pos:R:3:initial_magmoms:R:1 pbc="T T T"
Si      -0.26469621      -2.27416545      -0.19834076       0.00000000
Si      -1.12327695       1.37518551      -1.58893601       0.00000000
Si      -0.53592471       0.50148765       2.27204452       0.00000000
Si       2.28113757       0.46247310      -0.53645927       0.00000000
Si       1.18902339       2.09131020       2.21717623       0.00000000
Si       2.96378631       0.53838450       1.69076521       0.00000000
Si      -0.53932932      -2.51698419      -2.50819572       0.00000000
Si      -1.00743876       3.46202152      -0.53545790       0.00000000
Si      -2.76043824       1.33358085       2.08237081       0.00000000
Si       1.77881913      -3.29328414       0.45652214       0.00000000
