10
Lattice="16.28999089631971 0.0 0.0 0.0 16.28999089631971 0.0 0.0 0.0 34.5300574570662" Properties=species:S:1:pos:R:3:initial_magmoms:R:1 pbc="T T T"
Si       1.35713619       1.35711990       1.35713561       0.00000000
Si      -1.35705474       1.35716877      -1.35779168       0.00000000
Si      -1.35767376      -1.35866256       1.35717014       0.00000000
Si       1.35801585      -1.35702379      -1.35875852       0.00000000
Si      -2.71221984      -0.00022806       2.71544524       0.00000000
Si      -0.00016290      -2.71359539       2.71537618       0.00000000
Si      -2.71467963      -2.71444849      -0.00037983       0.00000000
Si       2.71490769      -2.71461830      -0.00034530       0.00000000
Si      -2.71510317       2.71518462      -0.00051795       0.00000000
Si       0.00030951       2.71541268      -2.71523806       0.00000000
