10
Lattice="16.28999089631971 0.0 0.0 0.0 16.28999089631971 0.0 0.0 0.0 34.5300574570662" Properties=species:S:1:pos:R:3:initial_magmoms:R:1 pbc="T T T"
Si       1.57012794      -1.10583851      -1.48147841       0.00000000
Si      -1.13769360       1.59534486      -1.47222435       0.00000000
Si       0.50684706       0.33881571       2.51810585       0.00000000
Si      -1.43413902      -1.40082434       1.71569592       0.00000000
Si       1.31364189       2.50561377       1.46593988       0.00000000
Si      -0.87236208       2.39858847       2.46244336       0.00000000
Si      -2.54260836      -2.54083994      -0.10445348       0.00000000
Si       2.84491818      -2.48444396      -0.03836292       0.00000000
Si       0.22893966      -2.45976461      -2.86323396       0.00000000
Si      -2.48311728       0.25360272      -2.86316490       0.00000000
