10
Lattice="16.28999089631971 0.0 0.0 0.0 16.28999089631971 0.0 0.0 0.0 34.5300574570662" Properties=species:S:1:pos:R:3:initial_magmoms:R:1 pbc="T T T"
Si       0.62403732      -1.84303594       1.27975370       0.00000000
Si       2.08023300       0.74103210      -0.75133994       0.00000000
Si      -1.07334810       1.88722908       1.02240104       0.00000000
Si      -1.46714256      -0.96848937      -1.63665658       0.00000000
Si       1.06132608       2.79937134      -1.54753445       0.00000000
Si      -3.47455926       0.16389369      -0.91466720       0.00000000
Si       0.68996295      -3.53769020      -0.27807071       0.00000000
Si       3.43218897       0.22356396       1.28652160       0.00000000
Si       2.63507040      -0.76281183      -2.44776808       0.00000000
Si       0.40609341       3.66279021       0.52575495       0.00000000
