10
Lattice="16.28999089631971 0.0 0.0 0.0 16.28999089631971 0.0 0.0 0.0 34.5300574570662" Properties=species:S:1:pos:R:3:initial_magmoms:R:1 pbc="T T T"
Si       2.18600397       0.10702530      -0.99650349       0.00000000
Si      -0.38253807       1.95398550      -1.40599567       0.00000000
Si       1.37920914      -2.05977276       0.05566248       0.00000000
Si       0.20435805      -1.16354583       2.22049112       0.00000000
Si      -2.26489644       1.01827161       0.62395849       0.00000000
Si      -1.76376717       0.36712773      -2.47887968       0.00000000
Si      -3.06147744      -0.98143992      -0.83517897       0.00000000
Si       0.87236208      -2.39858847      -2.46244336       0.00000000
Si       2.99568213       2.04590997       0.34909908       0.00000000
Si       0.49721967       0.74503944       3.68850280       0.00000000
