10
Lattice="16.28999089631971 0.0 0.0 0.0 16.28999089631971 0.0 0.0 0.0 34.5300574570662" Properties=species:S:1:pos:R:3:initial_magmoms:R:1 pbc="T T T"
Si      -0.97287138       1.99747980      -0.80883252       0.00000000
Si      -0.45282942      -1.25025750      -1.96548650       0.00000000
Si       2.36286450      -0.02720430       0.67913755       0.00000000
Si      -1.57902228      -0.41086638       1.86652330       0.00000000
Si       1.70763183       0.83621457       2.75242695       0.00000000
Si       0.22819032      -0.93934656       3.24907304       0.00000000
Si      -2.79642285      -1.14839613      -1.93710278       0.00000000
Si      -2.17302084      -2.66268195       1.31200480       0.00000000
Si      -3.07810953       1.17615429      -1.64884570       0.00000000
Si       1.30153842      -2.82657564       2.22667200       0.00000000
