10
Lattice="16.28999089631971 0.0 0.0 0.0 16.28999089631971 0.0 0.0 0.0 34.5300574570662" Properties=species:S:1:pos:R:3:initial_magmoms:R:1 pbc="T T T"
Si      -1.35863487      -1.34651511      -1.33742239       0.00000000
Si       1.35239580      -1.35661491       1.35868946       0.00000000
Si      -1.36050822       1.35692442       1.35817151       0.00000000
Si       1.36751292       1.35039213      -1.38717332       0.00000000
Si      -0.12061116       2.63596635      -2.75267902       0.00000000
Si       2.70969489      -2.71298547      -0.00455797       0.00000000
Si       2.71155195       0.00097740       2.71554883       0.00000000
Si       2.70866862       2.72015307      -0.00089778       0.00000000
Si      -0.00263898      -2.71353933       2.71589413       0.00000000
Si      -2.71518462       2.71634121       0.00096684       0.00000000
