10
Lattice="16.28999089631971 0.0 0.0 0.0 16.28999089631971 0.0 0.0 0.0 34.5300574570662" Properties=species:S:1:pos:R:3:initial_magmoms:R:1 pbc="T T T"
Si      -1.24124913       1.43788572       1.39112356       0.00000000
Si       1.56874329       1.23929433      -1.25196217       0.00000000
Si      -1.65812652      -1.15950591      -1.24773638       0.00000000
Si       1.48812408      -1.28557422       1.36550570       0.00000000
Si       0.17515008       1.03488741      -3.23060432       0.00000000
Si      -2.73447198       2.55228462      -0.05174332       0.00000000
Si      -2.59457346       0.08037486       2.75364586       0.00000000
Si       0.12061116      -2.63596635       2.75267902       0.00000000
Si      -2.67980274      -2.72890080       0.09859718       0.00000000
Si      -3.40897572       0.59140845      -1.67101888       0.00000000
