10
Lattice="16.28999089631971 0.0 0.0 0.0 16.28999089631971 0.0 0.0 0.0 34.5300574570662" Properties=species:S:1:pos:R:3:initial_magmoms:R:1 pbc="T T T"
Si      -1.35586557       1.35325917       1.35900023       0.00000000
Si       1.35397593      -1.35529542       1.35903476       0.00000000
Si       1.35785295       1.35645201      -1.35651407       0.00000000
Si      -1.35708732      -1.35850455      -1.35627235       0.00000000
Si      -0.03021795      -2.70982521       2.69065264       0.00000000
Si      -2.70205488       0.00043983       2.71730986       0.00000000
Si       2.71401174       2.71230129       0.00165744       0.00000000
Si       0.00068418       2.71355562      -2.71396044       0.00000000
Si      -2.71432125      -0.00136836      -2.71361514       0.00000000
Si       2.71487511      -0.00097740      -2.71396044       0.00000000
