10
Lattice="16.28999089631971 0.0 0.0 0.0 16.28999089631971 0.0 0.0 0.0 34.5300574570662" Properties=species:S:1:pos:R:3:initial_magmoms:R:1 pbc="T T T"
Si       1.87530480       1.41025788       0.24581962       0.00000000
Si       1.07329923      -1.76565681      -1.24025130       0.00000000
Si      -0.38830473      -0.93401973       2.20964867       0.00000000
Si      -2.16549486       1.21125924      -0.09240249       0.00000000
Si      -0.08483832       1.27086435      -2.77252345       0.00000000
Si      -1.32370911       3.05224101       1.40482164       0.00000000
Si       0.80053947       3.58142166       0.43242015       0.00000000
Si       2.87766108       0.74639151       2.33830774       0.00000000
Si       1.85894964      -1.29678174       3.06720313       0.00000000
Si      -1.89152964       0.52916436       3.39693083       0.00000000
