10
Lattice="16.28999089631971 0.0 0.0 0.0 16.28999089631971 0.0 0.0 0.0 34.5300574570662" Properties=species:S:1:pos:R:3:initial_magmoms:R:1 pbc="T T T"
Si      -1.80621891      -1.41612228       0.32958958       0.00000000
Si       1.56937860      -1.11610935      -1.33410405       0.00000000
Si      -0.43145694       2.16917640      -0.77523475       0.00000000
Si       1.19557197       0.61506153       1.98803464       0.00000000
Si       1.83324402       2.65075767      -1.35882758       0.00000000
Si      -2.33175060      -0.88076772       2.53868577       0.00000000
Si       2.61736317       0.68945796      -2.40111795       0.00000000
Si       3.27233520      -0.44545005       1.52598768       0.00000000
Si      -0.77234148      -3.53390373       0.59533305       0.00000000
Si      -0.34101486      -0.17912484       3.65690778       0.00000000
