10
Lattice="16.28999089631971 0.0 0.0 0.0 16.28999089631971 0.0 0.0 0.0 34.5300574570662" Properties=species:S:1:pos:R:3:initial_magmoms:R:1 pbc="T T T"
Si       1.35658233       1.35645201      -1.35616876       0.00000000
Si       1.35716877      -1.35710361       1.35744638       0.00000000
Si      -1.35757602       1.35823789       1.35792980       0.00000000
Si      -1.35925389      -1.35881406      -1.35841322       0.00000000
Si      -0.00068418      -2.71355562       2.71396044       0.00000000
Si       2.71419093      -2.71453302       0.00000000       0.00000000
Si       2.71332756      -0.00125433       2.71561789       0.00000000
Si       0.00245979      -2.71425609      -2.71492728       0.00000000
Si      -0.00057015       2.71402381       2.71547977       0.00000000
Si      -2.71500543      -2.71492398       0.00034530       0.00000000
