10
Lattice="16.28999089631971 0.0 0.0 0.0 16.28999089631971 0.0 0.0 0.0 34.5300574570662" Properties=species:S:1:pos:R:3:initial_magmoms:R:1 pbc="T T T"
Si      -1.05049323      -1.81745901       1.08776648       0.00000000
Si      -1.43154891       1.27210239      -1.40157582       0.00000000
Si       1.29479436      -1.43987310      -1.39283971       0.00000000
Si       1.33372746       1.20407535       1.66462594       0.00000000
Si       2.54780487       2.59949304       0.06025498       0.00000000
Si      -2.60556921      -0.63967572       2.55795356       0.00000000
Si      -2.83972167       2.54309706      -0.00583558       0.00000000
Si      -0.06817365       2.62417239      -2.76461607       0.00000000
Si       2.64476295      -0.09503586      -2.76513402       0.00000000
Si       2.54327625      -2.88908037       0.02897073       0.00000000
