10
Lattice="16.28999089631971 0.0 0.0 0.0 16.28999089631971 0.0 0.0 0.0 34.5300574570662" Properties=species:S:1:pos:R:3:initial_magmoms:R:1 pbc="T T T"
Si      -0.07853409       1.91220165      -1.35989801       0.00000000
Si      -1.80747324       0.54118638       1.42208668       0.00000000
Si       2.00200842      -0.71322507       1.10969308       0.00000000
Si      -0.02151909      -1.47422871      -1.92664016       0.00000000
Si       3.37971888      -0.08394237      -0.64951074       0.00000000
Si       2.24318187      -0.99264744      -2.51023299       0.00000000
Si       1.60550982      -3.02834358       0.83662923       0.00000000
Si      -0.14445972       3.60685591       0.19792640       0.00000000
Si      -3.68776278      -0.61271577       0.57064405       0.00000000
Si      -1.75954806       2.95117526       1.67495043       0.00000000
