10
Lattice="16.28999089631971 0.0 0.0 0.0 16.28999089631971 0.0 0.0 0.0 34.5300574570662" Properties=species:S:1:pos:R:3:initial_magmoms:R:1 pbc="T T T"
Si       1.35698958       1.35803377      -1.35782621       0.00000000
Si       1.35689184      -1.35759452       1.35841322       0.00000000
Si      -1.35853713      -1.35921058      -1.35571987       0.00000000
Si      -1.35801585       1.35702379       1.35875852       0.00000000
Si       2.71422351      -2.71460374       0.00044889       0.00000000
Si       2.71427238       2.71464868       0.00000000       0.00000000
Si      -2.71507059       2.71419256       0.00096684       0.00000000
Si      -0.00087966       2.71414369       2.71589413       0.00000000
Si      -2.71511946      -2.71566259       0.00044889       0.00000000
Si       2.71414206      -0.00193362       2.71710268       0.00000000
