10
Lattice="16.28999089631971 0.0 0.0 0.0 16.28999089631971 0.0 0.0 0.0 34.5300574570662" Properties=species:S:1:pos:R:3:initial_magmoms:R:1 pbc="T T T"
Si       1.13676507      -1.22456165      -1.64967442       0.00000000
Si      -2.23529751       0.11584633      -0.75392970       0.00000000
Si       0.57285414       2.18244623      -0.74716180       0.00000000
Si       0.78107292      -0.87045452       2.15284670       0.00000000
Si       2.90055409       1.82664005      -0.58013982       0.00000000
Si      -2.16937188      -1.57880792      -2.31175411       0.00000000
Si      -0.25285338      -0.95171067      -3.52382886       0.00000000
Si      -2.67170661       0.63329981       2.46959109       0.00000000
Si       3.21893888      -0.17460599      -1.82177232       0.00000000
Si      -0.11559384       3.64035236       0.95030224       0.00000000
