10
Lattice="16.28999089631971 0.0 0.0 0.0 16.28999089631971 0.0 0.0 0.0 34.5300574570662" Properties=species:S:1:pos:R:3:initial_magmoms:R:1 pbc="T T T"
Si      -1.35728280      -1.35661491      -1.35782621       0.00000000
Si      -1.35690813       1.35793440       1.35868946       0.00000000
Si       1.35808101       1.35752715      -1.35810245       0.00000000
Si       1.35803383      -1.35702216       1.35882758       0.00000000
Si      -2.71427238      -2.71464868       0.00000000       0.00000000
Si      -2.71438641       2.71554300       0.00044889       0.00000000
Si       2.71531561       2.71533123       0.00013812       0.00000000
Si       2.71536611      -2.71540942       0.00044889       0.00000000
Si       0.00068418       2.71603170       2.71492728       0.00000000
Si      -2.71515204      -0.00050499       2.71589413       0.00000000
