10
Lattice="16.28999089631971 0.0 0.0 0.0 16.28999089631971 0.0 0.0 0.0 34.5300574570662" Properties=species:S:1:pos:R:3:initial_magmoms:R:1 pbc="T T T"
Si       1.28635614      -1.39918068      -1.38344753       0.00000000
Si       1.18964241       1.38605094       1.53123625       0.00000000
Si      -1.70970066      -0.49583502       1.58676062       0.00000000
Si      -1.42306182       1.33294554      -1.37702493       0.00000000
Si      -0.90002250       1.44304965       2.93236318       0.00000000
Si       2.52244134       2.73619872       0.05504094       0.00000000
Si       2.64245578      -2.65577499       0.13597944       0.00000000
Si       2.63249580      -0.03028311      -2.73847680       0.00000000
Si      -0.07807797       2.68250688      -2.74804163       0.00000000
Si      -0.08009793      -2.74611933      -2.73934005       0.00000000
