10
Lattice="16.28999089631971 0.0 0.0 0.0 16.28999089631971 0.0 0.0 0.0 34.5300574570662" Properties=species:S:1:pos:R:3:initial_magmoms:R:1 pbc="T T T"
Si      -1.97767116       0.55688994      -1.13652295       0.00000000
Si       1.90615384       1.32364395      -0.41498246       0.00000000
Si       1.24281690      -2.01201048      -0.20987381       0.00000000
Si      -0.47105793       0.96181047       2.23889565       0.00000000
Si      -1.77036462       2.48497434       0.24388593       0.00000000
Si       1.64141039       0.08716779       3.04220335       0.00000000
Si      -3.45685203      -0.79623891       0.10003363       0.00000000
Si       2.20920160      -1.95302439       1.99898067       0.00000000
Si       3.16974797       1.15233831       1.59981299       0.00000000
Si      -2.43794511      -2.85457815       0.89622814       0.00000000
