10
Lattice="16.28999089631971 0.0 0.0 0.0 16.28999089631971 0.0 0.0 0.0 34.5300574570662" Properties=species:S:1:pos:R:3:initial_magmoms:R:1 pbc="T T T"
Si       0.68844798      -1.45790613      -1.69746404       0.00000000
Si      -0.49350555       2.09715831      -0.94899010       0.00000000
Si      -1.99114299      -0.66059208       1.14142622       0.00000000
Si       1.44368496       0.16565301       1.90022465       0.00000000
Si      -1.07922879       3.21105222       1.11418199       0.00000000
Si      -0.29721105      -0.36691596       3.66574748       0.00000000
Si       0.11559384      -3.64035236      -0.95030224       0.00000000
Si       3.01614793      -1.81371231      -1.53044206       0.00000000
Si      -0.66350799      -0.94043799      -3.73532558       0.00000000
Si      -2.33764758       1.98132012      -2.45823069       0.00000000
