10
Lattice="16.28999089631971 0.0 0.0 0.0 16.28999089631971 0.0 0.0 0.0 34.5300574570662" Properties=species:S:1:pos:R:3:initial_magmoms:R:1 pbc="T T T"
Si       0.49350555      -2.09715831       0.94899010       0.00000000
Si      -1.84414203      -0.11583819      -1.50924059       0.00000000
Si      -0.58572324       1.11389391       2.06317209       0.00000000
Si       1.79688474       0.77879232      -1.44366798       0.00000000
Si       2.20053465       2.97261549      -0.57858597       0.00000000
Si      -1.49763744      -2.75775039       2.09041632       0.00000000
Si       1.18195353      -3.55506444      -0.74847394       0.00000000
Si      -1.41281541       3.23894070       1.55233413       0.00000000
Si      -1.18890936      -0.97925706      -3.58252999       0.00000000
Si      -2.87801946       2.00194326      -1.77498407       0.00000000
