10
Lattice="16.28999089631971 0.0 0.0 0.0 16.28999089631971 0.0 0.0 0.0 34.5300574570662" Properties=species:S:1:pos:R:3:initial_magmoms:R:1 pbc="T T T"
Si      -1.35612621      -1.35858600       1.35696296       0.00000000
Si       1.35692442      -1.35764118      -1.35789527       0.00000000
Si      -1.35808101       1.35744570      -1.35754997       0.00000000
Si       1.35635427       1.35933534       1.35820604       0.00000000
Si       0.00099369      -2.71520091       2.71050743       0.00000000
Si       0.00029322       2.71407690      -2.71295907       0.00000000
Si      -0.00239463       2.71186146       2.71561789       0.00000000
Si      -2.71471221      -2.71511946       0.00051795       0.00000000
Si       2.71504591       0.00200367      -2.71482369       0.00000000
Si      -2.71510317       2.71487511      -0.00010359       0.00000000
