10
Lattice="16.28999089631971 0.0 0.0 0.0 16.28999089631971 0.0 0.0 0.0 34.5300574570662" Properties=species:S:1:pos:R:3:initial_magmoms:R:1 pbc="T T T"
Si      -1.01871144      -2.04317325       0.72889539       0.00000000
Si       2.26427646       0.24247665      -0.75209960       0.00000000
Si      -1.00235628       0.66386637      -2.09248812       0.00000000
Si      -1.04568768       1.71849726       1.36072673       0.00000000
Si      -3.26596581      -1.68041124      -0.12865907       0.00000000
Si       2.52901991       2.63704149      -0.79643622       0.00000000
Si      -2.87766108      -0.74639151      -2.33830774       0.00000000
Si      -1.12251132      -1.90125477       3.13474396       0.00000000
Si      -1.19656566       3.71586303       0.08314842       0.00000000
Si       0.13277979       1.83239694       3.44813893       0.00000000
