10
Lattice="16.28999089631971 0.0 0.0 0.0 16.28999089631971 0.0 0.0 0.0 34.5300574570662" Properties=species:S:1:pos:R:3:initial_magmoms:R:1 pbc="T T T"
Si      -1.56874329      -1.23929433       1.25196217       0.00000000
Si       1.37062431       1.57165920       1.16353755       0.00000000
Si      -1.39359321      -0.20440692      -1.97864215       0.00000000
Si       0.93623517      -0.01383021      -2.30249974       0.00000000
Si      -0.08061921      -2.52486855       2.61746787       0.00000000
Si       2.61358389       0.18746532       2.63495735       0.00000000
Si       1.99070316      -2.10302271      -2.39997815       0.00000000
Si      -2.39173038       1.84627602      -2.25595320       0.00000000
Si      -2.80999242       0.19859139       2.64308573       0.00000000
Si      -0.08400753       2.91491631       2.61251971       0.00000000
