10
Lattice="16.28999089631971 0.0 0.0 0.0 16.28999089631971 0.0 0.0 0.0 34.5300574570662" Properties=species:S:1:pos:R:3:initial_magmoms:R:1 pbc="T T T"
Si      -1.35304740      -1.34257293       1.36878605       0.00000000
Si       1.36788012       1.36731744       1.36854434       0.00000000
Si      -1.24295958       1.38419388      -1.47141980       0.00000000
Si       1.30882561      -1.38932523      -1.45000425       0.00000000
Si       2.20070474       0.38522592      -2.67448435       0.00000000
Si       0.62690503       2.13333840      -2.87542450       0.00000000
Si      -2.61358389      -0.18746532      -2.63495735       0.00000000
Si      -2.69420310      -2.71233387      -0.01748948       0.00000000
Si       2.72755592      -2.69003286      -0.00900544       0.00000000
Si      -2.69759142       2.72745099      -0.02243764       0.00000000
