10
Lattice="16.28999089631971 0.0 0.0 0.0 16.28999089631971 0.0 0.0 0.0 34.5300574570662" Properties=species:S:1:pos:R:3:initial_magmoms:R:1 pbc="T T T"
Si      -1.27479024       1.37860545      -1.44311550       0.00000000
Si       1.05191046       1.73520170       1.29349668       0.00000000
Si       1.43936811      -1.32382314      -1.45606428       0.00000000
Si      -1.21407741      -1.39541769       1.60437096       0.00000000
Si      -2.54780487      -2.59949304      -0.06025498       0.00000000
Si      -2.84491818       2.48444396       0.03836292       0.00000000
Si      -2.61597852       0.02467935      -2.82487105       0.00000000
Si       2.75087601      -2.71094922      -0.10617999       0.00000000
Si       0.09695808      -2.69452890      -2.82538900       0.00000000
Si       0.09832644       2.73977342      -2.82179787       0.00000000
