10
Lattice="16.28999089631971 0.0 0.0 0.0 16.28999089631971 0.0 0.0 0.0 34.5300574570662" Properties=species:S:1:pos:R:3:initial_magmoms:R:1 pbc="T T T"
Si       2.10409785       0.70418412      -0.65448307       0.00000000
Si      -0.88055595      -0.88083288      -1.98903601       0.00000000
Si       0.15087798      -1.99736577       1.27757831       0.00000000
Si      -0.85968846       1.83172905       1.27443607       0.00000000
Si      -2.31964713      -1.90759158       1.32043014       0.00000000
Si      -3.00480453      -1.41001353      -1.01663452       0.00000000
Si       0.81937071       1.87696638       2.96223169       0.00000000
Si       1.93303656       1.49936418      -2.78927054       0.00000000
Si       0.19420938      -3.05199666      -2.17563655       0.00000000
Si       0.38100681       0.10648773      -3.85286596       0.00000000
