10
Lattice="16.28999089631971 0.0 0.0 0.0 16.28999089631971 0.0 0.0 0.0 34.5300574570662" Properties=species:S:1:pos:R:3:initial_magmoms:R:1 pbc="T T T"
Si      -1.49699724       0.82368756       1.61524793       0.00000000
Si       2.05594461       0.64221696       0.95858946       0.00000000
Si      -0.36659016      -2.31888150       0.21681435       0.00000000
Si      -0.28053009       0.65427156      -2.25115382       0.00000000
Si       1.85129334      -0.35188029       3.15991638       0.00000000
Si      -0.23340312       0.65238192       3.63004338       0.00000000
Si      -2.16033419      -2.51196687       1.82035659       0.00000000
Si       1.94628033       3.07644795       1.13130890       0.00000000
Si      -0.57104595      -1.37090124      -3.52054851       0.00000000
Si       1.78279389       1.40224320      -3.14437785       0.00000000
