10
Lattice="16.28999089631971 0.0 0.0 0.0 16.28999089631971 0.0 0.0 0.0 34.5300574570662" Properties=species:S:1:pos:R:3:initial_magmoms:R:1 pbc="T T T"
Si       0.02624319      -0.95550624      -2.10574767       0.00000000
Si      -2.32587643       0.09655083       0.29968654       0.00000000
Si       0.71936640       2.19765132      -0.56960815       0.00000000
Si       1.02071511      -1.14753276       1.82791867       0.00000000
Si      -1.36533006       3.20191353      -0.09948115       0.00000000
Si       2.65671981       2.54554056       0.76784532       0.00000000
Si       2.23824600      -1.40128209      -2.73274480       0.00000000
Si      -3.29226113       0.03756474      -1.90916794       0.00000000
Si      -1.49851710       0.23065011      -3.51271018       0.00000000
Si      -2.89366763       2.13674301       1.34290922       0.00000000
