10
Lattice="16.28999089631971 0.0 0.0 0.0 16.28999089631971 0.0 0.0 0.0 34.5300574570662" Properties=species:S:1:pos:R:3:initial_magmoms:R:1 pbc="T T T"
Si      -1.34876543      -1.35987195      -1.37823348       0.00000000
Si       1.36386885       1.35483115      -1.37913127       0.00000000
Si       1.34427198      -1.45974594       1.31190121       0.00000000
Si      -1.34097280       1.44344875       1.49722413       0.00000000
Si      -0.27499475      -2.47725192       2.63347083       0.00000000
Si      -2.69707244       2.70004306      -0.02220284       0.00000000
Si      -2.72248484      -2.71049214      -0.01236177       0.00000000
Si       2.72672283       2.71411762      -0.00742397       0.00000000
Si      -2.70551066      -0.00735168      -2.73820056       0.00000000
Si       0.00999229       2.70980078      -2.73868398       0.00000000
