10
Lattice="16.28999089631971 0.0 0.0 0.0 16.28999089631971 0.0 0.0 0.0 34.5300574570662" Properties=species:S:1:pos:R:3:initial_magmoms:R:1 pbc="T T T"
Si       1.77715103       1.13635782      -0.99277424       0.00000000
Si       0.40703660      -2.29845384       0.01622914       0.00000000
Si      -2.22149729       0.66844386      -0.39191637       0.00000000
Si       0.21510945       0.55231245       2.32649845       0.00000000
Si       1.07987387       3.20342850       0.06667758       0.00000000
Si      -3.26948186      -1.13712345       0.67509753       0.00000000
Si       1.67063072      -2.46975948       2.03102458       0.00000000
Si       0.36524298       2.87446824       2.32739623       0.00000000
Si       2.23403666      -0.48057129       3.06886057       0.00000000
Si       3.85031417      -0.04569345      -0.46770989       0.00000000
