10
Lattice="16.28999089631971 0.0 0.0 0.0 16.28999089631971 0.0 0.0 0.0 34.5300574570662" Properties=species:S:1:pos:R:3:initial_magmoms:R:1 pbc="T T T"
Si       1.35604965       1.35799956      -1.35775715       0.00000000
Si       1.35841170      -1.35985662       1.35461491       0.00000000
Si      -1.35821276      -1.35757602      -1.35761903       0.00000000
Si      -1.35972860       1.36076886       1.36162452       0.00000000
Si       2.71251795       0.00079821      -2.71437480       0.00000000
Si       2.71312068      -2.71383255      -0.00017265       0.00000000
Si      -0.00120057      -2.71435383      -2.71461651       0.00000000
Si      -0.00097740       2.71446201      -2.71499634       0.00000000
Si       2.71393518       2.71569843       0.00037983       0.00000000
Si      -2.71647383       2.71328913       0.00165744       0.00000000
