10
Lattice="16.28999089631971 0.0 0.0 0.0 16.28999089631971 0.0 0.0 0.0 34.5300574570662" Properties=species:S:1:pos:R:3:initial_magmoms:R:1 pbc="T T T"
Si       1.13388174       1.90477245      -0.75544902       0.00000000
Si      -2.00724044      -0.06364503       1.23562427       0.00000000
Si       1.60285455      -1.48985082       0.97820254       0.00000000
Si      -0.75361938      -1.14171723      -2.21071910       0.00000000
Si      -2.97223172      -1.96217937       0.20718046       0.00000000
Si       3.23281566      -1.33869591      -0.80254804       0.00000000
Si       0.52937613      -3.57117525       1.34228767       0.00000000
Si      -3.38200667       1.77855264       0.55403508       0.00000000
Si       1.81815948       3.24738611       1.04273926       0.00000000
Si      -3.14329301      -1.16699931      -1.92760700       0.00000000
