10
Lattice="16.28999089631971 0.0 0.0 0.0 16.28999089631971 0.0 0.0 0.0 34.5300574570662" Properties=species:S:1:pos:R:3:initial_magmoms:R:1 pbc="T T T"
Si      -0.12340457       0.34314885      -2.33046941       0.00000000
Si       0.63796038       2.11721034       0.94325811       0.00000000
Si      -2.37312298      -0.38260323       0.25780155       0.00000000
Si       1.43822292      -1.60805106       1.11915432       0.00000000
Si      -3.05246485       1.35021035       1.64111096       0.00000000
Si      -2.64726739      -2.18173599       1.70285074       0.00000000
Si      -1.08839584      -1.55538549      -3.35891322       0.00000000
Si       0.72359203      -1.93701132       3.37987297       0.00000000
Si      -0.75819754       3.90696821       0.18808533       0.00000000
Si       0.41932741       2.12731503       3.34316750       0.00000000
