10
Lattice="16.28999089631971 0.0 0.0 0.0 16.28999089631971 0.0 0.0 0.0 34.5300574570662" Properties=species:S:1:pos:R:3:initial_magmoms:R:1 pbc="T T T"
Si      -1.82647131      -0.18968565       1.49439266       0.00000000
Si       0.73569061      -1.94490450      -1.18859430       0.00000000
Si       2.02823858       1.31116418       0.35282832       0.00000000
Si      -2.08986432       0.86237468      -1.08576373       0.00000000
Si       1.05724869      -2.46370842       1.06159268       0.00000000
Si      -0.33117479       1.97750663      -2.32577332       0.00000000
Si      -1.32780183      -2.48433156       1.34708735       0.00000000
Si       2.35534178      -0.92697498      -2.51033658       0.00000000
Si       1.08883012       3.36316661      -0.73600859       0.00000000
Si       3.74046419       0.33036609      -1.10472075       0.00000000
