10
Lattice="16.28999089631971 0.0 0.0 0.0 16.28999089631971 0.0 0.0 0.0 34.5300574570662" Properties=species:S:1:pos:R:3:initial_magmoms:R:1 pbc="T T T"
Si       1.05751422       1.63053452      -1.31204075       0.00000000
Si      -1.15812126       1.43955056       1.50116401       0.00000000
Si       1.51912395      -1.28171742       1.46147169       0.00000000
Si      -1.96520931      -0.84976785      -1.27630212       0.00000000
Si       2.17754946      -0.10998356      -2.46955798       0.00000000
Si      -3.34609632       1.18479125      -1.00641051       0.00000000
Si      -2.28356478       3.00995543       0.17193561       0.00000000
Si      -2.65509081      -2.71487904       0.09154269       0.00000000
Si      -2.53939923       0.09536003       2.85824092       0.00000000
Si       0.18169866      -2.61849111       2.85257798       0.00000000
