10
Lattice="16.28999089631971 0.0 0.0 0.0 16.28999089631971 0.0 0.0 0.0 34.5300574570662" Properties=species:S:1:pos:R:3:initial_magmoms:R:1 pbc="T T T"
Si      -1.35791811      -1.35651710       1.35751544       0.00000000
Si       1.35889551       1.35793026       1.35748091       0.00000000
Si       1.35957969      -1.35355232      -1.36238418       0.00000000
Si      -1.36151820       1.36029882      -1.35672125       0.00000000
Si       0.01975977       2.70448935      -2.71379815       0.00000000
Si      -2.70915732      -0.00697205      -2.71814203       0.00000000
Si      -2.71435383       0.00066796       2.71409856       0.00000000
Si      -2.71461447      -2.71409312      -0.00079419       0.00000000
Si      -2.71386513       2.71493124       0.00048342       0.00000000
Si       0.00125433       2.71530591       2.71437480       0.00000000
