10
Lattice="16.28999089631971 0.0 0.0 0.0 16.28999089631971 0.0 0.0 0.0 34.5300574570662" Properties=species:S:1:pos:R:3:initial_magmoms:R:1 pbc="T T T"
Si       1.96371063      -0.90569305      -0.85700197       0.00000000
Si      -1.33874478       0.61413789      -1.88385740       0.00000000
Si      -0.78659523      -1.73107544       1.48645074       0.00000000
Si       0.89316441       1.59453525       1.65685667       0.00000000
Si       0.90508869      -3.40793546       1.00251172       0.00000000
Si      -0.03670137       2.40998007      -2.80104530       0.00000000
Si       3.01578399      -2.00455196       0.94912822       0.00000000
Si      -3.29817114       1.53931215      -1.04035668       0.00000000
Si       3.22972056       0.77708676      -1.86286311       0.00000000
Si       1.48555026      -2.49815525      -2.50160047       0.00000000
