10
Lattice="16.28999089631971 0.0 0.0 0.0 16.28999089631971 0.0 0.0 0.0 34.5300574570662" Properties=species:S:1:pos:R:3:initial_magmoms:R:1 pbc="T T T"
Si      -0.68988150      -1.86511119       1.36784480       0.00000000
Si      -1.38088701       2.03455910       0.26989161       0.00000000
Si       1.96520931       0.84976785       1.27630212       0.00000000
Si      -0.71213364      -0.79388079      -2.26907493       0.00000000
Si      -1.92182904      -0.42214299       2.77312224       0.00000000
Si       0.96762600       2.53172990      -2.09866900       0.00000000
Si      -3.23709179       0.87713994       1.28252444       0.00000000
Si      -2.44814265      -2.75563662       0.08824614       0.00000000
Si       0.80708805       2.28931841       2.77746613       0.00000000
Si       0.97955028      -2.47074081      -2.75301396       0.00000000
