10
Lattice="16.28999089631971 0.0 0.0 0.0 16.28999089631971 0.0 0.0 0.0 34.5300574570662" Properties=species:S:1:pos:R:3:initial_magmoms:R:1 pbc="T T T"
Si       2.32536655       0.42322397      -0.06346628       0.00000000
Si      -1.39708483       1.79059028      -0.75651945       0.00000000
Si      -0.63818193      -2.11686662      -0.94436307       0.00000000
Si      -0.21878447       0.01005908       2.39932238       0.00000000
Si      -2.30075629      -1.03999921       2.57159294       0.00000000
Si       3.10241584      -0.99554217       1.61369408       0.00000000
Si      -0.53596055       3.72708032       0.32983129       0.00000000
Si      -0.76156434      -1.77495581      -3.27538496       0.00000000
Si       0.80018272      -3.72535751       0.17537826       0.00000000
Si      -3.69099376      -0.76702605       0.69705866       0.00000000
