10
Lattice="16.28999089631971 0.0 0.0 0.0 16.28999089631971 0.0 0.0 0.0 34.5300574570662" Properties=species:S:1:pos:R:3:initial_magmoms:R:1 pbc="T T T"
Si      -2.35265067      -0.06602337      -0.23787770       0.00000000
Si       0.17296722      -1.31629716       1.98945037       0.00000000
Si       0.52284384      -0.74878614      -2.24186523       0.00000000
Si       1.11182508       1.98465957       1.02941065       0.00000000
Si      -0.51399837       1.83347208       2.81174962       0.00000000
Si      -1.58804694      -0.24812928       3.17535133       0.00000000
Si      -2.87196772       2.18053053      -0.37720656       0.00000000
Si       2.82748788      -1.56141279      -1.75613064       0.00000000
Si       2.41357527      -0.81617787       2.71230300       0.00000000
Si      -3.46942465      -0.42241599       1.81445194       0.00000000
