10
Lattice="16.28999089631971 0.0 0.0 0.0 16.28999089631971 0.0 0.0 0.0 34.5300574570662" Properties=species:S:1:pos:R:3:initial_magmoms:R:1 pbc="T T T"
Si       0.47816037       1.59246220       1.64459850       0.00000000
Si      -1.72515987      -1.58974110       0.05479923       0.00000000
Si      -0.06568128       1.50472752      -1.84601243       0.00000000
Si       1.77463260      -1.55297457      -0.52658367       0.00000000
Si      -1.18923516      -2.09139165      -2.21727982       0.00000000
Si       1.09178838      -1.62878823      -2.75353191       0.00000000
Si      -0.58046157      -0.90978021       3.50411219       0.00000000
Si       3.65484069      -0.39902355       0.32496255       0.00000000
Si      -1.15023690      -2.86927173       2.07152836       0.00000000
Si       1.74417030       3.27524201       0.63873736       0.00000000
