10
Lattice="16.28999089631971 0.0 0.0 0.0 16.28999089631971 0.0 0.0 0.0 34.5300574570662" Properties=species:S:1:pos:R:3:initial_magmoms:R:1 pbc="T T T"
Si       1.35671265       1.35577164       1.35768809       0.00000000
Si      -1.35738054       1.35745602      -1.35730826       0.00000000
Si       1.35759231      -1.35826195      -1.35792980       0.00000000
Si      -1.35835794      -1.35746374       1.35803339       0.00000000
Si       2.71415835      -0.00182623      -2.71406403       0.00000000
Si       2.71466334       2.71431039       0.00034530       0.00000000
Si      -2.71502172       2.71483167      -0.00041436       0.00000000
Si       2.71474479      -2.71534927      -0.00048342       0.00000000
Si      -2.71477737      -2.71572394       0.00034530       0.00000000
Si      -2.71627605      -0.00047423      -2.71478916       0.00000000
