10
Lattice="16.28999089631971 0.0 0.0 0.0 16.28999089631971 0.0 0.0 0.0 34.5300574570662" Properties=species:S:1:pos:R:3:initial_magmoms:R:1 pbc="T T T"
Si       0.62765370       2.09071561      -0.92675273       0.00000000
Si       1.83959712      -0.13280422       1.53064924       0.00000000
Si      -1.93279221       0.55400172       1.35675578       0.00000000
Si      -0.35895015      -1.35969276      -2.00820020       0.00000000
Si       1.20151782       1.74549793       2.78526505       0.00000000
Si       1.29336084       3.29198908       0.98369283       0.00000000
Si       1.58118885      -2.19105291       2.59082619       0.00000000
Si      -2.61376308      -1.56343179       2.20063632       0.00000000
Si      -1.52423901      -3.45965295      -0.73707902       0.00000000
Si      -3.30569712       1.98893569       0.03677453       0.00000000
