10
Lattice="16.28999089631971 0.0 0.0 0.0 16.28999089631971 0.0 0.0 0.0 34.5300574570662" Properties=species:S:1:pos:R:3:initial_magmoms:R:1 pbc="T T T"
Si       0.66570714       1.20127347       1.91044556       0.00000000
Si      -0.62765370      -2.09071561       0.92675273       0.00000000
Si       1.89613971       0.25306515      -1.43286006       0.00000000
Si      -2.17569240       1.71452250      -0.04965425       0.00000000
Si      -0.73308258       2.54329254      -1.79473527       0.00000000
Si       0.51779394       1.12228326      -3.16057246       0.00000000
Si      -1.28524842       2.66721057       1.91679909       0.00000000
Si       1.21194342      -2.22351984       2.45740197       0.00000000
Si       2.82369231       2.37161223      -0.53221207       0.00000000
Si      -0.98660385      -3.45040838      -1.08144747       0.00000000
