10
Lattice="16.28999089631971 0.0 0.0 0.0 16.28999089631971 0.0 0.0 0.0 34.5300574570662" Properties=species:S:1:pos:R:3:initial_magmoms:R:1 pbc="T T T"
Si      -0.67855995       2.21045526      -0.25089554       0.00000000
Si       2.30389470      -0.11543094      -0.42948509       0.00000000
Si      -0.39052017      -0.33080103       2.29956499       0.00000000
Si      -0.83041533      -1.30692715      -1.85799437       0.00000000
Si      -0.10195911      -2.70006164       2.28627091       0.00000000
Si       2.39573772       1.43106021      -2.23105732       0.00000000
Si       0.44478216       2.89699731      -2.22470379       0.00000000
Si      -3.02210451       2.31495561      -0.22779492       0.00000000
Si      -2.20332024       0.12800682      -3.17797561       0.00000000
Si      -0.22473684       3.46426398       1.71030923       0.00000000
