10
Lattice="16.28999089631971 0.0 0.0 0.0 16.28999089631971 0.0 0.0 0.0 34.5300574570662" Properties=species:S:1:pos:R:3:initial_magmoms:R:1 pbc="T T T"
Si       1.86812091      -0.19980990       1.37408987       0.00000000
Si      -2.24891595      -0.59484240       0.29440343       0.00000000
Si      -0.28856106       2.36926061       0.01329408       0.00000000
Si       0.52035147      -1.30801860      -1.97284141       0.00000000
Si       0.10195911       2.70006164      -2.28627091       0.00000000
Si      -1.40942709      -0.72429903      -3.30038474       0.00000000
Si      -3.21497811      -0.33052086      -1.86521116       0.00000000
Si       1.80245592       1.49487042       2.93181070       0.00000000
Si       0.51613236      -3.54481479      -1.17267594       0.00000000
Si       3.78446022       0.42735740       0.16170435       0.00000000
