10
Lattice="16.28999089631971 0.0 0.0 0.0 16.28999089631971 0.0 0.0 0.0 34.5300574570662" Properties=species:S:1:pos:R:3:initial_magmoms:R:1 pbc="T T T"
Si       0.39052017       0.33080103      -2.29956499       0.00000000
Si       0.28856106      -2.36926061      -0.01329408       0.00000000
Si       1.46675160       0.96848937       1.63852120       0.00000000
Si      -2.00730267       1.13274144       0.72368135       0.00000000
Si      -1.96035489      -2.96410301       0.28110935       0.00000000
Si      -0.28803978       2.54125629      -2.55046053       0.00000000
Si       2.15668197      -2.56907051       1.36079579       0.00000000
Si       2.09101698      -0.87439018       2.91851662       0.00000000
Si       2.69441487       0.21537009      -2.72905009       0.00000000
Si       0.16578333       3.79506501      -0.58925576       0.00000000
