10
Lattice="16.28999089631971 0.0 0.0 0.0 16.28999089631971 0.0 0.0 0.0 34.5300574570662" Properties=species:S:1:pos:R:3:initial_magmoms:R:1 pbc="T T T"
Si       1.43241228      -1.31580846       1.34763984       0.00000000
Si      -1.39090536      -1.58197077      -1.09878157       0.00000000
Si       1.46810367       1.40584329      -1.29156299       0.00000000
Si      -0.49515084       1.83428658       1.74041946       0.00000000
Si      -1.87204680      -0.94819203       2.01382861       0.00000000
Si      -2.59758711      -0.04448799      -2.56800181       0.00000000
Si       0.09052353       2.69242749      -2.61637845       0.00000000
Si      -0.01019754      -2.14457850       3.09272085       0.00000000
Si       0.10498905      -2.76532524      -2.56244247       0.00000000
Si       3.35404584       0.10637370       1.75571628       0.00000000
