10
Lattice="16.28999089631971 0.0 0.0 0.0 16.28999089631971 0.0 0.0 0.0 34.5300574570662" Properties=species:S:1:pos:R:3:initial_magmoms:R:1 pbc="T T T"
Si      -1.44199080       1.25328744      -1.31708762       0.00000000
Si       1.26675927      -1.34149779      -1.41882704       0.00000000
Si       1.35870003       1.34620560       1.33693551       0.00000000
Si      -1.36080144      -1.36624230       1.33607226       0.00000000
Si      -0.61522443      -2.28719745      -2.62991734       0.00000000
Si      -2.36208258      -0.45607113      -2.68872172       0.00000000
Si      -0.00192222       2.70316260       2.69514155       0.00000000
Si       2.71093293      -0.01034415       2.69562497       0.00000000
Si      -2.71795392      -0.00918756       2.69693711       0.00000000
Si      -0.00164529      -2.72502378       2.69586668       0.00000000
