10
Lattice="16.28999089631971 0.0 0.0 0.0 16.28999089631971 0.0 0.0 0.0 34.5300574570662" Properties=species:S:1:pos:R:3:initial_magmoms:R:1 pbc="T T T"
Si      -1.35415512       1.35376416      -1.35813698       0.00000000
Si      -1.38227166      -1.35695700       1.33500183       0.00000000
Si       1.36278882      -1.36282140      -1.35758450       0.00000000
Si       1.36461330       1.36243044       1.37557467       0.00000000
Si      -0.00469152      -2.64354120       2.65981728       0.00000000
Si       2.61636948      -0.08451252       2.79327603       0.00000000
Si      -2.70850572       2.70819621       0.00020718       0.00000000
Si       2.71612944       2.70801702       0.00110496       0.00000000
Si       0.00361638       2.71077003      -2.71478916       0.00000000
Si      -2.71138905      -0.00417024      -2.71434027       0.00000000
