10
Lattice="16.28999089631971 0.0 0.0 0.0 16.28999089631971 0.0 0.0 0.0 34.5300574570662" Properties=species:S:1:pos:R:3:initial_magmoms:R:1 pbc="T T T"
Si       0.97459812      -1.99655127       0.80959218       0.00000000
Si      -0.16276968       1.55212749       1.79269799       0.00000000
Si       1.18944693       1.01506248      -1.81220749       0.00000000
Si      -2.10145887      -0.82490931      -0.83248562       0.00000000
Si       0.52077501      -3.25035999      -1.15161259       0.00000000
Si      -0.60457077      -2.40780861       2.67746215       0.00000000
Si      -1.82276955      -3.14585964      -1.12851197       0.00000000
Si       1.64825478       0.95746104       3.29786404       0.00000000
Si      -2.28978756      -0.38561688      -3.13028958       0.00000000
Si      -0.48394332       3.75688125       0.92506076       0.00000000
