10
Lattice="16.28999089631971 0.0 0.0 0.0 16.28999089631971 0.0 0.0 0.0 34.5300574570662" Properties=species:S:1:pos:R:3:initial_magmoms:R:1 pbc="T T T"
Si       0.52572717      -0.53551746      -2.20895807       0.00000000
Si       1.99054026       0.70151256       1.11808389       0.00000000
Si      -1.84199175       1.47551562      -0.39985829       0.00000000
Si      -0.70657875      -1.94380425       1.31763320       0.00000000
Si      -2.66703138       1.26501624       1.76396897       0.00000000
Si       2.81831661      -1.42296408       1.62912902       0.00000000
Si       2.33178318       0.88088175      -2.53872030       0.00000000
Si      -2.95099866       0.07946262      -2.05077579       0.00000000
Si       1.55919735      -2.65321746      -1.94373255       0.00000000
Si      -2.83568175      -1.14373719       2.14466307       0.00000000
