10
Lattice="16.28999089631971 0.0 0.0 0.0 16.28999089631971 0.0 0.0 0.0 34.5300574570662" Properties=species:S:1:pos:R:3:initial_magmoms:R:1 pbc="T T T"
Si       0.82777635      -2.12447664       0.51104514       0.00000000
Si      -1.99054026      -0.70151256      -1.11808389       0.00000000
Si       1.53679860       0.79421895      -1.66883861       0.00000000
Si      -0.67627935       0.86317452       2.20854371       0.00000000
Si       2.79283905      -1.07232183       1.53216857       0.00000000
Si      -0.93160881      -2.80460043       2.02629396       0.00000000
Si       0.34124292       0.17936919      -3.65680419       0.00000000
Si      -0.13144401      -1.06209171       3.53263403       0.00000000
Si      -2.69711901      -2.64531681       0.19954931       0.00000000
Si      -1.46481309      -1.23703002      -3.32704196       0.00000000
