10
Lattice="16.28999089631971 0.0 0.0 0.0 16.28999089631971 0.0 0.0 0.0 34.5300574570662" Properties=species:S:1:pos:R:3:initial_magmoms:R:1 pbc="T T T"
Si      -1.35330804      -1.35741312       1.36269840       0.00000000
Si       1.36029645       1.35612621       1.35834761       0.00000000
Si       1.24186815      -1.43806491      -1.39072647       0.00000000
Si      -1.49312511       1.11467583      -1.44319492       0.00000000
Si      -0.41681223      -2.59708212      -2.63885338       0.00000000
Si      -2.73263121       2.69777061      -0.03272415       0.00000000
Si      -2.71508688      -0.00210141       2.71917794       0.00000000
Si       0.00079821       2.71319724       2.72149145       0.00000000
Si       0.00135207      -2.71692765       2.71993760       0.00000000
Si      -2.16808497      -0.84657501      -3.06165557       0.00000000
