10
Lattice="16.28999089631971 0.0 0.0 0.0 16.28999089631971 0.0 0.0 0.0 34.5300574570662" Properties=species:S:1:pos:R:3:initial_magmoms:R:1 pbc="T T T"
Si      -1.35563751      -1.35606105       1.35875852       0.00000000
Si       1.36177884      -1.35531171      -1.35647954       0.00000000
Si       1.35931905       1.35886293       1.35844775       0.00000000
Si      -1.35496962       1.36309833      -1.36079579       0.00000000
Si       0.00146610      -2.71316466       2.71634302       0.00000000
Si      -2.71305063       0.00140094       2.71672285       0.00000000
Si      -2.71450044      -2.71578735       0.00134667       0.00000000
Si       2.71588509       2.71529865       0.00231352       0.00000000
Si      -2.71454931       2.71665065       0.00158838       0.00000000
Si       2.71643895      -2.71482624       0.00075966       0.00000000
