10
Lattice="16.28999089631971 0.0 0.0 0.0 16.28999089631971 0.0 0.0 0.0 34.5300574570662" Properties=species:S:1:pos:R:3:initial_magmoms:R:1 pbc="T T T"
Si      -0.07874586       1.91216907      -1.35979442       0.00000000
Si      -1.80745695       0.54115380       1.42212121       0.00000000
Si       2.00195955      -0.71330652       1.10958949       0.00000000
Si      -0.02147022      -1.47398436      -1.92626033       0.00000000
Si       3.37975146      -0.08407269      -0.64961433       0.00000000
Si       2.24305155      -0.99292437      -2.51044017       0.00000000
Si       1.60562385      -3.02842503       0.83662923       0.00000000
Si      -0.14441085       3.60684939       0.19792640       0.00000000
Si      -3.68766504      -0.61279722       0.57057499       0.00000000
Si      -1.75951548       2.95118504       1.67515761       0.00000000
