10
Lattice="16.28999089631971 0.0 0.0 0.0 16.28999089631971 0.0 0.0 0.0 34.5300574570662" Properties=species:S:1:pos:R:3:initial_magmoms:R:1 pbc="T T T"
Si      -1.36339155       1.30306316       1.49718269       0.00000000
Si       1.36288656      -1.41046706       1.47884032       0.00000000
Si       1.44728505       1.29729650      -1.62450686       0.00000000
Si      -1.70603541      -1.45524827      -1.32924018       0.00000000
Si       2.75613768       2.72630417      -0.05378750       0.00000000
Si      -2.86858755       2.62032143       0.16114151       0.00000000
Si      -0.00319284       2.66275688       2.86939068       0.00000000
Si       2.81694825      -2.75395223       0.03096657       0.00000000
Si       2.71003698      -0.05438742       2.86738793       0.00000000
Si      -2.71867068      -0.05524916       2.86925256       0.00000000
