10
Lattice="16.28999089631971 0.0 0.0 0.0 16.28999089631971 0.0 0.0 0.0 34.5300574570662" Properties=species:S:1:pos:R:3:initial_magmoms:R:1 pbc="T T T"
Si      -1.06375329      -1.71563741      -1.29377292       0.00000000
Si      -1.09151145       1.51578450       1.54197511       0.00000000
Si       1.75868953       1.11513195      -1.24000959       0.00000000
Si       2.08986432      -0.86237468       1.08576373       0.00000000
Si       0.26339301      -1.05206033       2.58015640       0.00000000
Si      -2.46985722       2.38500261      -0.18573728       0.00000000
Si      -2.34303957      -0.34364407      -2.74151544       0.00000000
Si       0.40956318       2.37788388      -2.76119759       0.00000000
Si      -2.27721168      -3.10839983       0.31384387       0.00000000
Si       2.82555493      -2.80727918      -0.10283057       0.00000000
