10
Lattice="16.28999089631971 0.0 0.0 0.0 16.28999089631971 0.0 0.0 0.0 34.5300574570662" Properties=species:S:1:pos:R:3:initial_magmoms:R:1 pbc="T T T"
Si      -1.35729909      -1.35659862      -1.35775715       0.00000000
Si      -1.35684297       1.35803214       1.35862040       0.00000000
Si       1.35808101       1.35755973      -1.35806792       0.00000000
Si       1.35797392      -1.35697329       1.35889664       0.00000000
Si      -2.71425609      -2.71462099       0.00000000       0.00000000
Si      -2.71438641       2.71557558       0.00048342       0.00000000
Si       2.71532050       2.71534752       0.00017265       0.00000000
Si       2.71536937      -2.71540616       0.00048342       0.00000000
Si      -2.71529865      -0.00068418       2.71582507       0.00000000
Si       0.00104256       2.71598283       2.71527259       0.00000000
