10
Lattice="16.28999089631971 0.0 0.0 0.0 16.28999089631971 0.0 0.0 0.0 34.5300574570662" Properties=species:S:1:pos:R:3:initial_magmoms:R:1 pbc="T T T"
Si       1.32496344       1.35536058       1.36317837       0.00000000
Si      -1.35677781       1.35633798      -1.35292294       0.00000000
Si      -1.34565174      -1.34752509       1.37333021       0.00000000
Si       1.35731538      -1.35668007      -1.35278482       0.00000000
Si      -2.72425815       0.07561818       2.66447884       0.00000000
Si       2.59973739       0.05403393       2.80152872       0.00000000
Si      -0.00057015      -2.71463076      -2.70943700       0.00000000
Si       2.71419093      -0.00039096      -2.70992042       0.00000000
Si      -0.00084708       2.71507059      -2.71005854       0.00000000
Si      -2.71559187      -0.00024435      -2.70960965       0.00000000
