10
Lattice="16.28999089631971 0.0 0.0 0.0 16.28999089631971 0.0 0.0 0.0 34.5300574570662" Properties=species:S:1:pos:R:3:initial_magmoms:R:1 pbc="T T T"
Si      -1.04296725       1.74107520       1.18914678       0.00000000
Si      -1.92163356      -1.42218216      -0.40807645       0.00000000
Si       1.63514133      -1.59386247       0.85444675       0.00000000
Si       2.10307158      -0.07654671      -1.42667918       0.00000000
Si      -0.67075704      -2.84319144      -1.77391363       0.00000000
Si       0.90217278      -1.47422871      -2.96029801       0.00000000
Si       0.81907749       3.16061838       1.45564992       0.00000000
Si      -1.14777711       3.02287014      -1.55982716       0.00000000
Si       0.70758873      -3.71240955      -0.04620124       0.00000000
Si      -3.35404584      -0.10637370      -1.75571628       0.00000000
