10
Lattice="16.28999089631971 0.0 0.0 0.0 16.28999089631971 0.0 0.0 0.0 34.5300574570662" Properties=species:S:1:pos:R:3:initial_magmoms:R:1 pbc="T T T"
Si       1.30649058      -1.37608146      -1.38907593       0.00000000
Si      -1.40950854       1.35055503      -1.37812989       0.00000000
Si       1.20089880       1.39768200       1.53361883       0.00000000
Si      -1.57292982      -1.36896273       1.18638438       0.00000000
Si      -0.90217278       1.47422871       2.96029801       0.00000000
Si      -0.19458405      -2.23818084       2.91409677       0.00000000
Si       2.53588059       2.75211405       0.05006861       0.00000000
Si       2.65561693      -2.63883339       0.13211207       0.00000000
Si      -2.82380634       0.05204655       2.55222156       0.00000000
Si       2.64817996      -0.01707192      -2.74310383       0.00000000
