10
Lattice="16.28999089631971 0.0 0.0 0.0 16.28999089631971 0.0 0.0 0.0 34.5300574570662" Properties=species:S:1:pos:R:3:initial_magmoms:R:1 pbc="T T T"
Si       1.01776662       2.04434613      -0.72647828       0.00000000
Si      -0.10445148       0.14219541       2.40816208       0.00000000
Si      -2.25623016       0.36140994      -0.85044126       0.00000000
Si       0.78538977      -2.15721954      -0.94861027       0.00000000
Si      -1.32553359      -3.21704694      -0.97699399       0.00000000
Si      -0.02837718       3.76246872       0.63566418       0.00000000
Si      -1.84565700       1.28822949      -3.08495159       0.00000000
Si      -3.27648915      -1.75110984      -0.97064046       0.00000000
Si       0.01638774       2.70777267      -2.81844845       0.00000000
Si       1.87357806      -0.41436873       3.54527204       0.00000000
