10
Lattice="16.28999089631971 0.0 0.0 0.0 16.28999089631971 0.0 0.0 0.0 34.5300574570662" Properties=species:S:1:pos:R:3:initial_magmoms:R:1 pbc="T T T"
Si       0.68844798      -1.45821564      -1.69760216       0.00000000
Si      -0.49337523       2.09675106      -0.94892104       0.00000000
Si      -1.99111041      -0.66114594       1.14094280       0.00000000
Si       1.44290304       0.16503399       1.90050089       0.00000000
Si      -1.07867493       3.21124770       1.11404387       0.00000000
Si      -0.29662461      -0.36729063       3.66533312       0.00000000
Si       0.11552868      -3.64067491      -0.95064754       0.00000000
Si       3.01607951      -1.81398924      -1.53082189       0.00000000
Si      -0.66352428      -0.94097556      -3.73560182       0.00000000
Si      -2.33779419       1.98099432      -2.45881771       0.00000000
