10
Lattice="16.28999089631971 0.0 0.0 0.0 16.28999089631971 0.0 0.0 0.0 34.5300574570662" Properties=species:S:1:pos:R:3:initial_magmoms:R:1 pbc="T T T"
Si      -1.34934957       1.31193144       1.62056556       0.00000000
Si       1.43917263      -1.31947371       1.56027605       0.00000000
Si       0.29079279      -1.80317268      -1.85340187       0.00000000
Si      -1.44873486      -2.33549730      -0.08856965       0.00000000
Si      -0.26572248       2.29519584      -1.61873547       0.00000000
Si       2.34106263      -0.70033968      -1.42885458       0.00000000
Si      -2.23078518       1.24304103      -2.63985890       0.00000000
Si       0.30511170       2.51067996       2.90360105       0.00000000
Si      -3.19000554       2.30542596       0.38173000       0.00000000
Si      -2.66269824      -0.20000862       3.07437990       0.00000000
