10
Lattice="16.28999089631971 0.0 0.0 0.0 16.28999089631971 0.0 0.0 0.0 34.5300574570662" Properties=species:S:1:pos:R:3:initial_magmoms:R:1 pbc="T T T"
Si       0.91390158      -0.33045894       2.10923521       0.00000000
Si      -2.07671436       1.06051158       0.46197790       0.00000000
Si       1.78158096       1.01874402      -1.20889799       0.00000000
Si      -0.40361733      -2.19372543      -0.86518560       0.00000000
Si      -1.70280999      -0.67119687      -2.86088592       0.00000000
Si       1.70874511      -3.06846585      -0.06187790       0.00000000
Si      -3.27227004       0.44566182      -1.52598768       0.00000000
Si      -2.20043691      -2.97268065       0.57889674       0.00000000
Si       3.80056193      -0.01413972      -0.46639775       0.00000000
Si       2.26323390      -2.25543195       2.11034017       0.00000000
