10
Lattice="16.28999089631971 0.0 0.0 0.0 16.28999089631971 0.0 0.0 0.0 34.5300574570662" Properties=species:S:1:pos:R:3:initial_magmoms:R:1 pbc="T T T"
Si       0.39633570       2.31511851       0.27296026       0.00000000
Si       2.07671436      -1.06051158      -0.46197790       0.00000000
Si      -1.19555568      -0.61484976      -1.98796558       0.00000000
Si      -1.53679860      -0.79421895       1.66883861       0.00000000
Si      -1.60562385       3.02842503      -0.83662923       0.00000000
Si      -1.62709407       1.55444067      -2.76288956       0.00000000
Si       2.99061594      -1.39097052       1.64725731       0.00000000
Si      -0.70902225      -2.91869559       2.17988375       0.00000000
Si       1.77412761       2.94435234      -1.48624356       0.00000000
Si       0.37390437      -1.73170845      -3.32286382       0.00000000
