10
Lattice="16.28999089631971 0.0 0.0 0.0 16.28999089631971 0.0 0.0 0.0 34.5300574570662" Properties=species:S:1:pos:R:3:initial_magmoms:R:1 pbc="T T T"
Si      -1.35697329       1.35230850      -1.36086485       0.00000000
Si       1.35946144      -1.36078515      -1.36152093       0.00000000
Si       1.34847547       1.36088682       1.37888956       0.00000000
Si      -1.37404521      -1.35071793       1.36670044       0.00000000
Si       2.69280935      -0.09964593       2.69006563       0.00000000
Si       2.71235735       2.71442618      -0.00072513       0.00000000
Si      -2.71450044       2.71328588       0.00127761       0.00000000
Si       0.00106579       2.71211300      -2.71810405       0.00000000
Si      -2.71443528      -0.00303486      -2.71838029       0.00000000
Si       2.71548503      -0.00276930      -2.71927807       0.00000000
