10
Lattice="16.28999089631971 0.0 0.0 0.0 16.28999089631971 0.0 0.0 0.0 34.5300574570662" Properties=species:S:1:pos:R:3:initial_magmoms:R:1 pbc="T T T"
Si      -0.68014008       1.73368184       1.38265333       0.00000000
Si      -0.27468198      -1.79857890       1.44439311       0.00000000
Si      -1.67907546      -0.04559571      -1.68924588       0.00000000
Si       2.37267175       0.38384127      -0.25876840       0.00000000
Si       2.24928934       0.72575208      -2.58979029       0.00000000
Si       0.86201793      -0.88972722       3.30521895       0.00000000
Si      -0.82073907      -1.87608672      -2.96088502       0.00000000
Si       0.71009739       1.46070868       3.25718761       0.00000000
Si      -1.42066719       2.01265298      -2.74942283       0.00000000
Si       0.50956749      -3.75969942       0.40199915       0.00000000
