10
Lattice="16.28999089631971 0.0 0.0 0.0 16.28999089631971 0.0 0.0 0.0 34.5300574570662" Properties=species:S:1:pos:R:3:initial_magmoms:R:1 pbc="T T T"
Si      -1.20394503      -0.95060295      -1.84749723       0.00000000
Si       2.36069697      -0.44088885      -0.03867369       0.00000000
Si      -0.33422193       2.38337917       0.14827215       0.00000000
Si      -0.26533152      -1.07836542       2.22214856       0.00000000
Si       0.17384688      -0.32136912      -3.60670105       0.00000000
Si       2.92652198       1.13660217       1.84390610       0.00000000
Si       1.81698075       3.07504768       1.00941773       0.00000000
Si       2.52173177      -2.77032627       0.48324842       0.00000000
Si      -2.24127594       2.62363549       1.69432181       0.00000000
Si      -2.59432911      -1.26902358       2.54621333       0.00000000
