10
Lattice="16.28999089631971 0.0 0.0 0.0 16.28999089631971 0.0 0.0 0.0 34.5300574570662" Properties=species:S:1:pos:R:3:initial_magmoms:R:1 pbc="T T T"
Si       0.02621061      -0.95566914      -2.10560955       0.00000000
Si      -2.32582267       0.09653454       0.29968654       0.00000000
Si       0.71899173       2.19765132      -0.56912473       0.00000000
Si       1.02069882      -1.14759792       1.82778055       0.00000000
Si      -1.36528119       3.20184837      -0.09944662       0.00000000
Si       2.65683384       2.54550798       0.76770720       0.00000000
Si       2.23956549      -1.40059791      -2.73267574       0.00000000
Si      -3.29211615       0.03753216      -1.90934059       0.00000000
Si      -1.49843565       0.23092704      -3.51226129       0.00000000
Si      -2.89365949       2.13667785       1.34284015       0.00000000
