10
Lattice="16.28999089631971 0.0 0.0 0.0 16.28999089631971 0.0 0.0 0.0 34.5300574570662" Properties=species:S:1:pos:R:3:initial_magmoms:R:1 pbc="T T T"
Si      -1.35618552      -1.35575154      -1.35710108       0.00000000
Si       1.35468943      -1.35487188       1.36041596       0.00000000
Si       1.35855016       1.35997065      -1.35713561       0.00000000
Si      -1.35553392       1.35791811       1.36480128       0.00000000
Si       2.68840060       0.01840770       2.72639127       0.00000000
Si      -2.71306107      -2.71204065       0.00003453       0.00000000
Si       0.00121686      -2.71267596      -2.71506541       0.00000000
Si       2.71526281      -2.71370223       0.00155385       0.00000000
Si      -2.71431540       0.00205254      -2.71513447       0.00000000
Si       2.71593070       0.00206883      -2.71420215       0.00000000
