10
Lattice="16.28999089631971 0.0 0.0 0.0 16.28999089631971 0.0 0.0 0.0 34.5300574570662" Properties=species:S:1:pos:R:3:initial_magmoms:R:1 pbc="T T T"
Si       1.35770634       1.35691465      -1.35786074       0.00000000
Si      -1.35790182      -1.35772330      -1.35813698       0.00000000
Si       1.35664749      -1.35788620       1.36221153       0.00000000
Si      -1.36102950       1.35947218       1.36041596       0.00000000
Si       2.71316466       2.71113493       0.00000000       0.00000000
Si      -0.00146610      -2.71490836      -2.71472010       0.00000000
Si      -2.71392540      -2.71573915      -0.00037983       0.00000000
Si       2.71437012      -2.71538077       0.00058701       0.00000000
Si      -2.71470244       2.71537033       0.00058701       0.00000000
Si       2.71534752      -0.00046101      -2.71475463       0.00000000
