10
Lattice="16.28999089631971 0.0 0.0 0.0 16.28999089631971 0.0 0.0 0.0 34.5300574570662" Properties=species:S:1:pos:R:3:initial_magmoms:R:1 pbc="T T T"
Si       0.51931705      -2.24655390       0.13932886       0.00000000
Si      -0.32155808       0.51880392      -2.25018698       0.00000000
Si      -2.38505052      -0.02062314       0.28549467       0.00000000
Si       0.75571753       1.14132627       2.21020115       0.00000000
Si      -1.05724869       2.46370842      -1.06159268       0.00000000
Si      -2.21721465      -0.81969651       2.41710537       0.00000000
Si      -0.59745693      -2.60294652       2.19165850       0.00000000
Si       2.87196772      -2.18053053       0.37720656       0.00000000
Si      -2.88372000       2.27402277       0.43279998       0.00000000
Si      -1.25286423       1.07838171       3.44451328       0.00000000
