10
Lattice="16.28999089631971 0.0 0.0 0.0 16.28999089631971 0.0 0.0 0.0 34.5300574570662" Properties=species:S:1:pos:R:3:initial_magmoms:R:1 pbc="T T T"
Si      -1.88137771      -0.17428671      -1.36089939       0.00000000
Si      -0.27751644      -0.51059376       2.28309414       0.00000000
Si       1.07404857       2.08160136      -0.36360171       0.00000000
Si       1.76101416      -1.06816788      -1.18590096       0.00000000
Si       2.37820968       1.90868301       1.68389372       0.00000000
Si      -0.76460373       0.18210591      -3.41322903       0.00000000
Si       1.58804694       0.24812928      -3.17535133       0.00000000
Si      -2.14510630      -2.56782528      -1.31690807       0.00000000
Si       1.79512542      -1.69209117       2.80891815       0.00000000
Si      -0.97503795       1.55663982       3.34271861       0.00000000
