10
Lattice="10.86 0.0 0.0 0.0 10.86 0.0 0.0 0.0 10.86" Properties=species:S:1:pos:R:3:initial_magmoms:R:1 pbc="T T T"
Si       1.26888240      -1.38025170       1.26450582       0.00000000
Si      -1.44611760       1.33474830       1.26450582       0.00000000
Si       1.26888240       1.33474830      -1.45049418       0.00000000
Si       2.62638240      -0.02275170       2.62200582       0.00000000
Si      -0.08861760       2.69224830       2.62200582       0.00000000
Si       2.62638240       2.69224830      -0.09299418       0.00000000
Si      -0.08861760      -2.73775170       2.62200582       0.00000000
Si       2.62638240      -2.73775170      -0.09299418       0.00000000
Si      -2.80361760      -0.02275170       2.62200582       0.00000000
Si       2.62638240      -0.02275170      -2.80799418       0.00000000
