10
Lattice="10.86 0.0 0.0 0.0 10.86 0.0 0.0 0.0 10.86" Properties=species:S:1:pos:R:3:initial_magmoms:R:1 pbc="T T T"
Si       1.18196982      -1.16847084      -1.45451238       0.00000000
Si      -1.43597436       1.29997458      -1.10068272       0.00000000
Si      -1.53303018      -1.16847084       1.26048762       0.00000000
Si       1.18196982       1.54652916       1.26048762       0.00000000
Si       2.53946982      -2.52597084      -0.09701238       0.00000000
Si      -0.17553018      -2.52597084       2.61798762       0.00000000
Si       2.53946982       0.18902916       2.61798762       0.00000000
Si       2.42563530       2.86434672      -0.16496340       0.00000000
Si      -0.17553018      -2.52597084      -2.81201238       0.00000000
Si      -2.89053018      -2.52597084      -0.09701238       0.00000000
