10
Lattice="10.86 0.0 0.0 0.0 10.86 0.0 0.0 0.0 10.86" Properties=species:S:1:pos:R:3:initial_magmoms:R:1 pbc="T T T"
Si       1.12794132       1.22756010       1.42224732       0.00000000
Si       1.12794132      -1.48743990      -1.29275268       0.00000000
Si      -1.58705868      -1.48743990       1.42224732       0.00000000
Si      -0.01716966       2.39050320      -2.50222002       0.00000000
Si       2.48544132       2.58506010       0.06474732       0.00000000
Si       2.48544132      -0.12993990      -2.65025268       0.00000000
Si       2.48544132      -0.12993990       2.77974732       0.00000000
Si      -0.34339320       2.54537766       2.71179630       0.00000000
Si       2.48544132      -2.84493990       0.06474732       0.00000000
Si      -0.22955868      -2.84493990      -2.65025268       0.00000000
