10
Lattice="16.28999089631971 0.0 0.0 0.0 16.28999089631971 0.0 0.0 0.0 34.450931932916035" Properties=species:S:1:pos:R:3:initial_magmoms:R:1 pbc="T T T"
Si       1.31558692      -1.36310715       1.38616847       0.00000000
Si      -1.34866712      -1.35936045      -1.36598021       0.00000000
Si       1.36805701       1.35143306      -1.36622137       0.00000000
Si      -1.33807756       1.31748470       1.55845768       0.00000000
Si      -2.20822420      -0.68826390       2.54709662       0.00000000
Si       2.27555662       0.46436111       2.60232150       0.00000000
Si      -0.39620701      -2.29631238       2.86900631       0.00000000
Si       0.49162243       2.24493956       3.02834196       0.00000000
Si      -2.70159943       2.70835748       0.03162597       0.00000000
Si      -2.70536242      -0.00725068      -2.72524249       0.00000000
