10
Lattice="16.28999089631971 0.0 0.0 0.0 16.28999089631971 0.0 0.0 0.0 34.450931932916035" Properties=species:S:1:pos:R:3:initial_magmoms:R:1 pbc="T T T"
Si       1.35260757       1.38008880      -1.32869395       0.00000000
Si       1.35653346      -1.35723393       1.36243177       0.00000000
Si      -1.35692442       1.36042677       1.36101928       0.00000000
Si      -1.36472733      -1.36948401      -1.34684960       0.00000000
Si      -0.02938716       2.64082077      -2.70421019       0.00000000
Si       0.02968038      -2.62943406      -2.76845432       0.00000000
Si       2.75706621       0.11422548      -2.66293795       0.00000000
Si      -2.71313045      -2.71515204       0.00647678       0.00000000
Si       2.71539639      -2.71407690       0.00551215       0.00000000
Si       2.71295289       2.71725345       0.00726915       0.00000000
