10
Lattice="16.28999089631971 0.0 0.0 0.0 16.28999089631971 0.0 0.0 0.0 34.450931932916035" Properties=species:S:1:pos:R:3:initial_magmoms:R:1 pbc="T T T"
Si       1.34661285       1.33990137      -1.36332749       0.00000000
Si       1.47527127      -1.21863861       1.39557358       0.00000000
Si      -1.33245684       1.33856559       1.43226384       0.00000000
Si      -1.37287233      -1.37407779      -1.36315524       0.00000000
Si      -0.18759564      -2.24323074       2.85439911       0.00000000
Si      -1.99143621      -0.40182543       3.03144255       0.00000000
Si       2.71112841       2.69895978       0.02084283       0.00000000
Si      -0.00829161       2.70109377      -2.72035046       0.00000000
Si       2.70260874      -0.01532889      -2.72190075       0.00000000
Si      -2.73957075       2.69299764       0.02718180       0.00000000
