10
Lattice="16.28999089631971 0.0 0.0 0.0 16.28999089631971 0.0 0.0 0.0 34.450931932916035" Properties=species:S:1:pos:R:3:initial_magmoms:R:1 pbc="T T T"
Si       0.71333584      -2.21541231      -0.51039084       0.00000000
Si      -2.07789768       0.32182524       1.13185155       0.00000000
Si       1.78280692       0.66655422       1.48648964       0.00000000
Si       0.53399923       1.18113903      -2.23259389       0.00000000
Si       2.86754173       0.69968808      -1.86465773       0.00000000
Si       2.79588202      -1.61139865      -1.44600977       0.00000000
Si       0.98826217       2.47989186       2.71983369       0.00000000
Si      -1.75659372      -0.11523546       3.44099546       0.00000000
Si      -2.57084937       2.64344346       1.25377347       0.00000000
Si       3.54670441       1.62741987       0.18083304       0.00000000
