10
Lattice="16.28999089631971 0.0 0.0 0.0 16.28999089631971 0.0 0.0 0.0 34.450931932916035" Properties=species:S:1:pos:R:3:initial_magmoms:R:1 pbc="T T T"
Si       0.84001014       1.76099787       1.29914537       0.00000000
Si       1.33245684      -1.33856559      -1.43226384       0.00000000
Si      -1.40711391       1.35443205      -1.40508204       0.00000000
Si      -0.65897937      -1.74039102       1.59917870       0.00000000
Si       2.60350038       2.69625564      -0.02504584       0.00000000
Si       2.80772811      -2.55720420      -0.03669026       0.00000000
Si      -2.63456541      -2.72771163       0.22052054       0.00000000
Si      -2.68926723       2.76255594       0.13849282       0.00000000
Si       2.67906969       0.00133578      -2.79559134       0.00000000
Si      -0.04041549      -2.71264338      -2.79541908       0.00000000
