10
Lattice="16.28999089631971 0.0 0.0 0.0 16.28999089631971 0.0 0.0 0.0 34.450931932916035" Properties=species:S:1:pos:R:3:initial_magmoms:R:1 pbc="T T T"
Si      -1.46075688      -0.09923868      -1.86355530       0.00000000
Si       1.73205054       1.62414558      -0.12171521       0.00000000
Si      -1.95611949       0.81024831       1.14467354       0.00000000
Si       1.01807613      -2.04675705       1.03845502       0.00000000
Si       2.04885846      -0.38894004       2.45587881       0.00000000
Si       0.95143374      -2.53345338      -1.85494256       0.00000000
Si      -0.72594756       2.37113982       2.38378331       0.00000000
Si      -3.35894913       0.79231302      -0.76157273       0.00000000
Si      -1.24385553      -2.26396791      -2.54017198       0.00000000
Si       2.60146413       1.33100703      -2.28161760       0.00000000
