10
Lattice="16.28999089631971 0.0 0.0 0.0 16.28999089631971 0.0 0.0 0.0 34.450931932916035" Properties=species:S:1:pos:R:3:initial_magmoms:R:1 pbc="T T T"
Si       1.35765747       1.35632169      -1.35695407       0.00000000
Si      -1.35904212       1.35462753       1.35822875       0.00000000
Si      -1.35738054      -1.35843939      -1.35671291       0.00000000
Si       1.35545832      -1.35643572       1.36315524       0.00000000
Si       0.00009774       2.71410948      -2.71432154       0.00000000
Si      -2.71434731       2.71438641       0.00031006       0.00000000
Si      -2.71442713      -0.00097740      -2.71442489       0.00000000
Si       2.71668330       2.71261080       0.00013780       0.00000000
Si       2.71555929      -0.00135207      -2.71380478       0.00000000
Si       0.00065160      -2.71547784      -2.71394258       0.00000000
