10
Lattice="16.28999089631971 0.0 0.0 0.0 16.28999089631971 0.0 0.0 0.0 34.450931932916035" Properties=species:S:1:pos:R:3:initial_magmoms:R:1 pbc="T T T"
Si       0.70838694       2.19228281       0.39928652       0.00000000
Si      -2.25437310       0.45449100       0.49202848       0.00000000
Si       0.61045146      -1.36896273       1.82321324       0.00000000
Si       0.61735842      -1.31996241      -1.88684415       0.00000000
Si       2.02921272       2.35325081      -1.49806516       0.00000000
Si      -0.26567361      -3.33689247      -0.87829255       0.00000000
Si      -3.05968554      -1.53764568       1.38437702       0.00000000
Si      -0.30672441      -0.16322580      -3.72735176       0.00000000
Si      -3.07532394       1.48478463      -1.54347152       0.00000000
Si       2.23241418       2.11866341       2.19545577       0.00000000
