10
Lattice="16.28999089631971 0.0 0.0 0.0 16.28999089631971 0.0 0.0 0.0 34.450931932916035" Properties=species:S:1:pos:R:3:initial_magmoms:R:1 pbc="T T T"
Si      -1.35795069      -1.35677284       1.35740193       0.00000000
Si       1.35718506       1.35848413       1.35764308       0.00000000
Si       1.35715248      -1.35698461      -1.35967569       0.00000000
Si      -1.35769005       1.35935564      -1.36470553       0.00000000
Si      -0.00037467      -2.71402306       2.71459715       0.00000000
Si       2.71534752      -2.71366468      -0.00003445       0.00000000
Si       2.71479366       0.00070892       2.71483831       0.00000000
Si      -2.71494027       0.00075084       2.71494166       0.00000000
Si      -2.71609686      -2.71389274      -0.00048231       0.00000000
Si       0.00006516       2.71532710       2.71487276       0.00000000
