10
Lattice="16.28999089631971 0.0 0.0 0.0 16.28999089631971 0.0 0.0 0.0 34.450931932916035" Properties=species:S:1:pos:R:3:initial_magmoms:R:1 pbc="T T T"
Si      -1.35312885       1.35837423      -1.35943453       0.00000000
Si      -1.33683885      -1.34887227       1.38516939       0.00000000
Si       1.36045935      -1.35668007      -1.35757418       0.00000000
Si       1.36546038       1.34974053       1.37979505       0.00000000
Si      -2.64578922       0.14159268       2.75666176       0.00000000
Si      -2.71332756      -2.71544755       0.00189480       0.00000000
Si      -2.71244790       0.00052128      -2.71652640       0.00000000
Si      -2.71647153       2.71337643      -0.00165365       0.00000000
Si       0.00319284      -2.71486947      -2.71659530       0.00000000
Si       0.00281817       2.71529865      -2.71707762       0.00000000
