10
Lattice="16.28999089631971 0.0 0.0 0.0 16.28999089631971 0.0 0.0 0.0 34.450931932916035" Properties=species:S:1:pos:R:3:initial_magmoms:R:1 pbc="T T T"
Si      -1.03108160       2.01359061      -0.58611403       0.00000000
Si      -1.05556547      -1.22872049      -1.82183520       0.00000000
Si       2.44136715       0.24053814       0.04130669       0.00000000
Si      -0.52271957       0.14411763       2.55849989       0.00000000
Si      -0.40078892       1.83700701      -2.84926592       0.00000000
Si       0.52284661      -0.46896955      -3.35176749       0.00000000
Si      -1.13784626      -3.26628251      -0.75223652       0.00000000
Si      -3.22902614       1.65306033       0.22007268       0.00000000
Si       2.63788971       2.17971603       1.35064954       0.00000000
Si       3.06437820      -1.69631747       1.25063843       0.00000000
