10
Lattice="16.28999089631971 0.0 0.0 0.0 16.28999089631971 0.0 0.0 0.0 34.450931932916035" Properties=species:S:1:pos:R:3:initial_magmoms:R:1 pbc="T T T"
Si       1.58355090      -1.68752901      -0.20684351       0.00000000
Si      -1.42408809       0.46272071       1.88942797       0.00000000
Si       1.36638891       1.77019357      -1.07156239       0.00000000
Si      -1.56924828      -1.92897939      -0.04678439       0.00000000
Si      -2.84597703      -0.78999888      -1.65481699       0.00000000
Si       2.07291879       1.13983736       2.56242730       0.00000000
Si       3.17681064       1.46439769       0.44941266       0.00000000
Si      -0.08500122       2.05533374       3.01941917       0.00000000
Si      -2.21190507      -1.81304346       2.28303008       0.00000000
Si      -2.00409354       1.21075262      -2.91785776       0.00000000
