10
Lattice="16.28999089631971 0.0 0.0 0.0 16.28999089631971 0.0 0.0 0.0 34.450931932916035" Properties=species:S:1:pos:R:3:initial_magmoms:R:1 pbc="T T T"
Si       1.07017155      -2.05429932      -0.42288543       0.00000000
Si      -0.34270902       0.22118562       2.33467206       0.00000000
Si      -2.13640092      -0.64892844      -0.90357955       0.00000000
Si       1.03348647       1.89226269      -1.09216405       0.00000000
Si      -0.01159848       1.10253978      -3.19384433       0.00000000
Si      -2.39878395       1.24491438       2.13206602       0.00000000
Si      -3.63397320      -0.36729063       0.93537778       0.00000000
Si      -2.58644475       0.87899211      -2.70794812       0.00000000
Si       1.37929059      -2.23873470      -2.82704505       0.00000000
Si       2.88059328      -2.36009520       1.09808962       0.00000000
