10
Lattice="16.28999089631971 0.0 0.0 0.0 16.28999089631971 0.0 0.0 0.0 34.450931932916035" Properties=species:S:1:pos:R:3:initial_magmoms:R:1 pbc="T T T"
Si      -1.35798327       1.35754344       1.35685071       0.00000000
Si      -1.35878148      -1.35669636      -1.35705742       0.00000000
Si       1.35739683      -1.35804843       1.35726412       0.00000000
Si       1.35865116       1.35695700      -1.35740193       0.00000000
Si       2.71156824       0.00221544      -2.71339137       0.00000000
Si      -2.71402803      -0.00125433      -2.71352917       0.00000000
Si      -0.00179190       2.71437012       2.71352917       0.00000000
Si      -2.71393029       0.00061902       2.71449380       0.00000000
Si       2.71469592       0.00040725       2.71442489       0.00000000
Si       0.00329058       2.71252935      -2.71676756       0.00000000
