10
Lattice="16.28999089631971 0.0 0.0 0.0 16.28999089631971 0.0 0.0 0.0 34.450931932916035" Properties=species:S:1:pos:R:3:initial_magmoms:R:1 pbc="T T T"
Si       1.72486665       1.43949843       0.70062899       0.00000000
Si      -2.19170547       0.83127870       0.21070202       0.00000000
Si       0.44426088      -1.95897024       1.28105862       0.00000000
Si       0.47381094      -0.22333590      -2.33126142       0.00000000
Si       3.55385898       0.40855320      -0.37637664       0.00000000
Si       2.72701116      -0.83585619      -2.22511804       0.00000000
Si      -3.44953782      -0.34448463      -1.47353608       0.00000000
Si      -0.90624528      -3.67033248       0.27646888       0.00000000
Si       0.38077875       1.98350298      -3.21654751       0.00000000
Si      -3.03195996       0.35859177       2.38366131       0.00000000
