10
Lattice="16.28999089631971 0.0 0.0 0.0 16.28999089631971 0.0 0.0 0.0 34.450931932916035" Properties=species:S:1:pos:R:3:initial_magmoms:R:1 pbc="T T T"
Si       2.04499773      -1.10584665      -0.38275007       0.00000000
Si      -0.44426088       1.95897024      -1.28105862       0.00000000
Si      -1.35050616      -1.71136224      -1.00458974       0.00000000
Si      -0.25366788       0.34756344       2.37280926       0.00000000
Si       1.40595732      -3.10475671       0.74152227       0.00000000
Si       1.28060577       3.39846867      -0.58042963       0.00000000
Si       2.22241212      -1.17809280      -2.71204778       0.00000000
Si      -3.52515600      -1.29150378      -0.08306124       0.00000000
Si       1.45275849      -0.90350856       3.46366418       0.00000000
Si      -0.25759377       2.65434147       2.92733177       0.00000000
