10
Lattice="16.28999089631971 0.0 0.0 0.0 16.28999089631971 0.0 0.0 0.0 34.450931932916035" Properties=species:S:1:pos:R:3:initial_magmoms:R:1 pbc="T T T"
Si      -0.29999664       1.04593203       2.00352952       0.00000000
Si      -1.58289930      -1.12598109      -1.32202080       0.00000000
Si       1.18521153       1.61227017      -1.24436836       0.00000000
Si      -0.14281443      -2.46184254      -2.70839598       0.00000000
Si       2.56992669       0.25371675      -2.69881861       0.00000000
Si      -2.19455622       2.31862086       1.95009609       0.00000000
Si      -3.34638954      -2.06123886       0.00217041       0.00000000
Si      -2.86174575       0.27675081      -2.72920435       0.00000000
Si      -0.15524370       2.96707689      -2.71080755       0.00000000
Si       1.78675236       1.36834371       3.35490253       0.00000000
