10
Lattice="16.28999089631971 0.0 0.0 0.0 16.28999089631971 0.0 0.0 0.0 34.450931932916035" Properties=species:S:1:pos:R:3:initial_magmoms:R:1 pbc="T T T"
Si       0.38115342      -2.09380257       1.03411420       0.00000000
Si      -0.89803512       1.64954169       1.48683415       0.00000000
Si      -1.17428094      -1.00121598      -1.87578539       0.00000000
Si       1.70790876       1.56810798      -0.78727314       0.00000000
Si      -2.12548662       2.78875026      -0.19626707       0.00000000
Si      -0.99494433       0.62037207      -3.55464914       0.00000000
Si      -1.57102389      -2.46024612       2.40660565       0.00000000
Si       1.03448016       2.76293061       2.39837187       0.00000000
Si       2.11683663      -1.99029591       2.59422553       0.00000000
Si       1.07619885      -3.70310796      -0.56396207       0.00000000
