10
Lattice="16.28999089631971 0.0 0.0 0.0 16.28999089631971 0.0 0.0 0.0 34.450931932916035" Properties=species:S:1:pos:R:3:initial_magmoms:R:1 pbc="T T T"
Si      -1.31105178       1.32737959       1.45803316       0.00000000
Si       0.91927728       1.96397520      -1.01975608       0.00000000
Si       1.41144705      -1.35443205       1.43849258       0.00000000
Si      -1.28873448      -1.44199080      -1.60346582       0.00000000
Si      -2.70329292       2.63550764       0.11259260       0.00000000
Si      -2.70094716      -2.66875812       0.06725170       0.00000000
Si      -2.65913073      -0.00729792       2.81726098       0.00000000
Si       0.05569551       2.70817896       2.80771807       0.00000000
Si       2.79262728      -2.73399957       0.05964838       0.00000000
Si      -0.96894549       3.59345087      -1.20540399       0.00000000
