10
Lattice="16.28999089631971 0.0 0.0 0.0 16.28999089631971 0.0 0.0 0.0 34.450931932916035" Properties=species:S:1:pos:R:3:initial_magmoms:R:1 pbc="T T T"
Si       0.29999664      -1.04593203      -2.00352952       0.00000000
Si      -1.89455958       1.27268883      -0.05343343       0.00000000
Si       0.15242553      -0.50384970       2.33119251       0.00000000
Si       2.08674900       0.32241168       1.35137301       0.00000000
Si      -1.61218872       2.68757307       1.75172751       0.00000000
Si       1.48520817       0.56633814      -3.24789787       0.00000000
Si      -3.65875029      -0.27893367       0.21655868       0.00000000
Si      -0.33545997       1.54859256       3.35976011       0.00000000
Si       2.42927883       2.42354475      -1.91981371       0.00000000
Si       3.83160348      -1.01794581       0.31922251       0.00000000
