10
Lattice="16.28999089631971 0.0 0.0 0.0 16.28999089631971 0.0 0.0 0.0 34.450931932916035" Properties=species:S:1:pos:R:3:initial_magmoms:R:1 pbc="T T T"
Si      -0.74228643       2.19002013       0.54522075       0.00000000
Si       1.57465656      -1.76324589       0.32793860       0.00000000
Si       1.20158298       0.91046439      -1.89387214       0.00000000
Si      -1.95344793      -0.93538809      -1.12251534       0.00000000
Si      -0.70423299      -0.10331118      -2.91747880       0.00000000
Si      -1.70999388      -3.22059816      -0.87160907       0.00000000
Si       2.32842744      -1.51259166       2.52044024       0.00000000
Si       0.61224336      -3.65233203      -0.72588154       0.00000000
Si       0.40039191       3.07511610      -2.25819095       0.00000000
Si      -1.79136243       3.23172164      -1.25363566       0.00000000
