10
Lattice="16.28999089631971 0.0 0.0 0.0 16.28999089631971 0.0 0.0 0.0 34.450931932916035" Properties=species:S:1:pos:R:3:initial_magmoms:R:1 pbc="T T T"
Si      -1.40304141       1.22934114      -1.37686327       0.00000000
Si      -1.35982404      -1.34859208       1.35101472       0.00000000
Si       1.35664002       1.36542780       1.35511438       0.00000000
Si       1.38433139      -1.34072564      -1.37176797       0.00000000
Si       0.10556948       2.38251024      -2.69030782       0.00000000
Si       2.70450557      -2.70776099      -0.00903648       0.00000000
Si       2.70504314       2.71109583       0.00178800       0.00000000
Si      -0.00180837      -2.70504577       2.71151723       0.00000000
Si       2.70922967       0.00923643       2.71003584       0.00000000
Si      -2.71381626      -2.71222703      -0.02708189       0.00000000
