10
Lattice="16.28999089631971 0.0 0.0 0.0 16.28999089631971 0.0 0.0 0.0 34.450931932916035" Properties=species:S:1:pos:R:3:initial_magmoms:R:1 pbc="T T T"
Si       1.50861089       1.15316910      -1.31344455       0.00000000
Si       1.40304141      -1.22934114       1.37686327       0.00000000
Si      -1.11268845      -1.27104354      -1.61977834       0.00000000
Si      -1.31997870       1.48789602       1.34928873       0.00000000
Si      -0.00403992       1.83676266      -2.91599538       0.00000000
Si      -2.61034218      -2.49248240      -0.02525944       0.00000000
Si       2.65273432      -0.55736235      -2.55453600       0.00000000
Si       0.04321737      -2.57793322       2.72787799       0.00000000
Si       2.62489959       2.68680744       0.04982641       0.00000000
Si       2.78737280      -2.57006678       0.00509530       0.00000000
