10
Lattice="16.28999089631971 0.0 0.0 0.0 16.28999089631971 0.0 0.0 0.0 34.450931932916035" Properties=species:S:1:pos:R:3:initial_magmoms:R:1 pbc="T T T"
Si       0.32130396      -0.43706070       2.30914391       0.00000000
Si      -0.49295169       2.32161822       0.12192192       0.00000000
Si       2.07789768      -0.32182524      -1.13185155       0.00000000
Si      -1.95392034      -1.35698958      -0.29855194       0.00000000
Si      -1.85505633       0.04313592       2.95292883       0.00000000
Si      -1.79471817       2.34434277       2.15879995       0.00000000
Si      -1.31349528      -3.57053084      -0.69411776       0.00000000
Si       3.86070461       0.34472898       0.35463809       0.00000000
Si       1.56874396       3.53528838       0.45568273       0.00000000
Si       1.83779775       1.10218140       3.28358906       0.00000000
