10
Lattice="16.28999089631971 0.0 0.0 0.0 16.28999089631971 0.0 0.0 0.0 34.450931932916035" Properties=species:S:1:pos:R:3:initial_magmoms:R:1 pbc="T T T"
Si       1.03108160      -2.01359061       0.58611403       0.00000000
Si       0.63029268      -0.17658360      -2.26315189       0.00000000
Si       0.38216340       1.99762641       1.19172730       0.00000000
Si      -2.19794454      -0.36053028       0.80618671       0.00000000
Si      -0.02448387      -3.24231110      -1.23572117       0.00000000
Si      -1.60570530      -0.56286837      -3.04022754       0.00000000
Si       0.50836203      -1.86947298       3.14461392       0.00000000
Si       2.68634222       2.21664546       1.28350464       0.00000000
Si      -2.22180939       0.55457676       3.00553543       0.00000000
Si      -2.24474571      -2.56177843      -1.91595520       0.00000000
