10
Lattice="16.28999089631971 0.0 0.0 0.0 16.28999089631971 0.0 0.0 0.0 34.450931932916035" Properties=species:S:1:pos:R:3:initial_magmoms:R:1 pbc="T T T"
Si       1.11268845       1.27104354       1.61977834       0.00000000
Si      -0.70957611       1.58768856      -1.73591453       0.00000000
Si      -1.49765373      -1.22143886       1.59451891       0.00000000
Si       2.02059531      -0.83636118      -1.59683604       0.00000000
Si       1.10864853       3.10780620      -1.29621704       0.00000000
Si       2.62129934       2.42421264       0.30633380       0.00000000
Si       2.67747394      -2.59875413       0.07813476       0.00000000
Si       2.51572986       0.04170240       2.99664161       0.00000000
Si      -2.73694806      -2.31101180      -1.64703107       0.00000000
Si       3.76542277       0.71368119      -0.93475766       0.00000000
