10
Lattice="16.28999089631971 0.0 0.0 0.0 16.28999089631971 0.0 0.0 0.0 34.450931932916035" Properties=species:S:1:pos:R:3:initial_magmoms:R:1 pbc="T T T"
Si       0.49295169      -2.32161822      -0.12192192       0.00000000
Si      -1.00566315       1.01136465      -1.92577372       0.00000000
Si       2.06169565       1.21367016       0.33376082       0.00000000
Si      -1.30176648       0.02272455       2.03687804       0.00000000
Si      -1.29674916       3.15789795       0.99962880       0.00000000
Si      -0.62242461       3.27220488      -1.26193834       0.00000000
Si       0.81425565      -2.75867892       2.18722199       0.00000000
Si       3.55911155      -0.16355160       1.46606023       0.00000000
Si      -1.36210464      -2.27848230       2.83100691       0.00000000
Si       2.57084937      -2.64344346      -1.25377347       0.00000000
