10
Lattice="16.28999089631971 0.0 0.0 0.0 16.28999089631971 0.0 0.0 0.0 34.450931932916035" Properties=species:S:1:pos:R:3:initial_magmoms:R:1 pbc="T T T"
Si       1.80188577      -0.20325033       1.42351330       0.00000000
Si      -1.65587850      -1.08766701       1.18814440       0.00000000
Si      -0.11767896      -0.34353981      -2.31961699       0.00000000
Si      -0.21962178       2.31106230       0.43732037       0.00000000
Si       3.29951085       1.33952670       0.46439882       0.00000000
Si      -0.42112908       1.91327679      -3.07860590       0.00000000
Si      -1.35917244       3.19616316      -1.39888087       0.00000000
Si       0.96889662       1.03115700       3.48109636       0.00000000
Si       1.93321575       3.23307630       0.59558804       0.00000000
Si      -1.65195261      -3.39444504       0.63362189       0.00000000
