10
Lattice="16.28999089631971 0.0 0.0 0.0 16.28999089631971 0.0 0.0 0.0 34.450931932916035" Properties=species:S:1:pos:R:3:initial_magmoms:R:1 pbc="T T T"
Si       0.04254948       1.16998038      -2.12269536       0.00000000
Si       1.06570809       1.56804282       1.60545708       0.00000000
Si      -1.71273060      -1.00843245       1.55388057       0.00000000
Si       0.92248641      -2.07146898      -1.24026869       0.00000000
Si       2.18942487       2.38392747      -1.60410519       0.00000000
Si       2.43513722      -2.75506254       0.36228214       0.00000000
Si      -2.51458956      -1.82330712      -2.10705463       0.00000000
Si       2.33969538       0.28776285       3.05635889       0.00000000
Si      -0.39345237      -2.42033562       3.02501542       0.00000000
Si       2.00349081       3.46449204       0.51673675       0.00000000
