10
Lattice="16.28999089631971 0.0 0.0 0.0 16.28999089631971 0.0 0.0 0.0 34.450931932916035" Properties=species:S:1:pos:R:3:initial_magmoms:R:1 pbc="T T T"
Si      -0.93778272      -1.89644922       1.08872034       0.00000000
Si       0.18593406      -1.08056457      -2.12084194       0.00000000
Si       1.85272264       1.12293486       1.08768336       0.00000000
Si      -1.85588712       1.63260009      -0.13259999       0.00000000
Si       0.33915700       2.28077919       2.52778135       0.00000000
Si      -2.39008509      -0.47004795       2.51892402       0.00000000
Si      -0.65435301       0.75567681      -3.40641363       0.00000000
Si      -2.60965800       1.38194586      -2.32510163       0.00000000
Si      -0.94195296       3.63915342       1.07445420       0.00000000
Si       3.03449210      -0.43851051       2.51276074       0.00000000
