10
Lattice="16.28999089631971 0.0 0.0 0.0 16.28999089631971 0.0 0.0 0.0 34.450931932916035" Properties=species:S:1:pos:R:3:initial_magmoms:R:1 pbc="T T T"
Si       1.35519739       1.35441576      -1.36697929       0.00000000
Si      -1.35404109      -1.35913986      -1.36994207       0.00000000
Si      -1.30499190       1.31054679       1.51532509       0.00000000
Si       1.33779996      -1.33419987       1.46971203       0.00000000
Si       2.20370861       0.49402683       2.71035968       0.00000000
Si      -2.05353369      -0.50039622       2.93063906       0.00000000
Si      -0.38447658      -2.27623428       2.85715519       0.00000000
Si       0.35824968       2.33746839       2.81846677       0.00000000
Si      -2.71033020       2.71428867       0.02122179       0.00000000
Si      -2.70565497      -2.72961756       0.00720025       0.00000000
