10
Lattice="16.28999089631971 0.0 0.0 0.0 16.28999089631971 0.0 0.0 0.0 34.450931932916035" Properties=species:S:1:pos:R:3:initial_magmoms:R:1 pbc="T T T"
Si      -0.24894378       1.87652655      -1.25787313       0.00000000
Si       0.14607243       0.19126089       2.28533830       0.00000000
Si       2.26195188      -0.30154419      -0.33307180       0.00000000
Si      -0.48552345      -2.25377037      -0.08009846       0.00000000
Si       0.18880110      -2.13946344      -2.34166560       0.00000000
Si       1.14124482      -2.00876877       2.28988582       0.00000000
Si      -2.20506327       2.70163134      -0.25758976       0.00000000
Si       2.39484570      -0.94798026      -2.56077365       0.00000000
Si       2.77552182      -2.33424297       0.67758131       0.00000000
Si      -1.79613540      -0.85677255       3.12390890       0.00000000
