10
Lattice="16.28999089631971 0.0 0.0 0.0 16.28999089631971 0.0 0.0 0.0 34.450931932916035" Properties=species:S:1:pos:R:3:initial_magmoms:R:1 pbc="T T T"
Si       1.28110996      -1.35837423       1.45332716       0.00000000
Si      -1.44578637       1.33654563       1.43431712       0.00000000
Si       1.42977397       1.40831613      -1.45710784       0.00000000
Si      -0.91393416      -2.00655333      -1.20705419       0.00000000
Si       2.79467560      -2.51621856       0.01322917       0.00000000
Si       2.65236128       2.70804701       0.08963104       0.00000000
Si       2.62155037      -0.01423746       2.81754693       0.00000000
Si      -0.09179415       2.70018057       2.81241374       0.00000000
Si      -2.78619273      -2.73966849       0.05869409       0.00000000
Si       0.94195296      -3.63915342      -1.07445420       0.00000000
