10
Lattice="16.28999089631971 0.0 0.0 0.0 16.28999089631971 0.0 0.0 0.0 34.450931932916035" Properties=species:S:1:pos:R:3:initial_magmoms:R:1 pbc="T T T"
Si      -1.35581670      -1.35809730      -1.35657510       0.00000000
Si      -1.35777150       1.35835794       1.35705742       0.00000000
Si       1.35811359      -1.35772263       1.35767754       0.00000000
Si       1.35795069       1.35871632      -1.35757418       0.00000000
Si      -0.00027693      -2.71570590      -2.71194443       0.00000000
Si      -2.71407690       0.00307881       2.71370142       0.00000000
Si       2.71406061       0.00123804       2.71432154       0.00000000
Si       2.71437012      -2.71477737      -0.00010335       0.00000000
Si      -2.71490769      -2.71443528       0.00003445       0.00000000
Si       0.00039096       2.71538010       2.71494166       0.00000000
