10
Lattice="16.28999089631971 0.0 0.0 0.0 16.28999089631971 0.0 0.0 0.0 34.450931932916035" Properties=species:S:1:pos:R:3:initial_magmoms:R:1 pbc="T T T"
Si      -1.35519739      -1.35441576       1.36697929       0.00000000
Si       1.35970771      -1.35456237      -1.36356865       0.00000000
Si      -1.35620737       1.36112724      -1.36339639       0.00000000
Si       1.38447177       1.36251189       1.37617770       0.00000000
Si      -2.70923848      -2.71355562      -0.00296278       0.00000000
Si      -2.70987379       2.71521720      -0.00403076       0.00000000
Si       2.71726093      -2.71078632      -0.00137804       0.00000000
Si       2.71532242       2.71611315      -0.00520209       0.00000000
Si      -2.71215439       0.00216657      -2.72004040       0.00000000
Si       0.00206602      -2.71204065      -2.72031601       0.00000000
