10
Lattice="16.28999089631971 0.0 0.0 0.0 16.28999089631971 0.0 0.0 0.0 34.450931932916035" Properties=species:S:1:pos:R:3:initial_magmoms:R:1 pbc="T T T"
Si      -1.73646513       1.52858844       0.55803651       0.00000000
Si      -0.62411877      -1.76151915       1.48959023       0.00000000
Si       2.15956530       0.85532274       0.72946444       0.00000000
Si      -0.80223363      -0.83445525      -2.26397871       0.00000000
Si      -3.34875485       0.05126463      -0.22151962       0.00000000
Si       3.23644833       0.04013856      -1.17202136       0.00000000
Si      -2.83518490      -1.98143415       0.78913349       0.00000000
Si       2.65755060      -2.31919101      -1.11493613       0.00000000
Si       2.89077453      -0.86117085       2.36946752       0.00000000
Si       2.23526493       0.92489733      -3.15119405       0.00000000
