10
Lattice="16.28999089631971 0.0 0.0 0.0 16.28999089631971 0.0 0.0 0.0 34.450931932916035" Properties=species:S:1:pos:R:3:initial_magmoms:R:1 pbc="T T T"
Si      -1.33085065      -1.35360126       1.38137979       0.00000000
Si       1.35904212      -1.35462753      -1.35822875       0.00000000
Si      -1.35530519       1.35975888      -1.35791869       0.00000000
Si       1.35039213       1.35760860       1.36945976       0.00000000
Si       2.71450044      -2.71106325       0.00492649       0.00000000
Si       0.00166158      -2.71306692      -2.71494166       0.00000000
Si      -2.71302847       0.00144981      -2.71514836       0.00000000
Si      -2.71532242      -2.71611315       0.00520209       0.00000000
Si       2.71554300       2.71632982       0.00337619       0.00000000
Si       2.71669959       0.00169416      -2.71518282       0.00000000
