10
Lattice="16.28999089631971 0.0 0.0 0.0 16.28999089631971 0.0 0.0 0.0 34.450931932916035" Properties=species:S:1:pos:R:3:initial_magmoms:R:1 pbc="T T T"
Si       1.25782583       1.90511550       0.23151039       0.00000000
Si       0.48954056      -1.68466293       1.55242876       0.00000000
Si      -2.16927155       0.65650329       0.62146071       0.00000000
Si       0.56413247      -0.53714646      -2.25150746       0.00000000
Si      -1.12274915      -3.16198674       0.77287264       0.00000000
Si       3.40057985       1.02286539      -0.22344887       0.00000000
Si       2.93782982      -0.39084597      -2.10515982       0.00000000
Si       0.71070989       3.15902426      -1.73794713       0.00000000
Si      -0.25915761       1.46712627      -3.45098623       0.00000000
Si      -3.63364481      -0.98391600      -0.15192869       0.00000000
