10
Lattice="16.290000149 0.0 0.0 0.0 16.290000149 0.0 0.0 0.0 29.1751946751" Properties=species:S:1:pos:R:3:initial_magmoms:R:1 pbc="T T T"
Si      -1.34576578      -1.32952465       1.38163219       0.00000000
Si       1.36145305       1.36581877       1.36506068       0.00000000
Si      -1.38335984       1.34188876      -1.37266373       0.00000000
Si       1.38675142      -1.37055916      -1.34920980       0.00000000
Si       2.68607441       0.11469789      -2.62304314       0.00000000
Si      -2.67524156      -2.69086367       0.00368191       0.00000000
Si      -2.60269389      -0.14893947      -2.76923946       0.00000000
Si      -2.70242957       0.05693355       2.71167096       0.00000000
Si      -0.03844440       2.80435611      -2.60801208       0.00000000
Si       0.02127474      -2.67996566       2.74574759       0.00000000
