10
Lattice="16.290000149 0.0 0.0 0.0 16.290000149 0.0 0.0 0.0 29.1751946751" Properties=species:S:1:pos:R:3:initial_magmoms:R:1 pbc="T T T"
Si      -0.92102032      -1.12687705       1.81901504       0.00000000
Si       0.84802483      -1.78878863      -1.29998832       0.00000000
Si       1.86623129       1.46008900       0.12244829       0.00000000
Si      -1.63134577       1.26495109      -1.21896881       0.00000000
H        0.47341998       2.30648483       1.74537685       0.00000000
H       -1.08810685      -0.31099239       3.08448911       0.00000000
H        2.57963555       1.52344081       1.45400418       0.00000000
Si      -3.09301491      -1.09473688       0.98755116       0.00000000
Si       1.96134860      -0.35447040      -2.86602525       0.00000000
Si      -0.33076845       2.62682768      -2.62608845       0.00000000
