10
Lattice="16.290000149 0.0 0.0 0.0 16.290000149 0.0 0.0 0.0 29.1751946751" Properties=species:S:1:pos:R:3:initial_magmoms:R:1 pbc="T T T"
Si      -1.25817445      -1.36800163       1.42791280       0.00000000
Si      -1.44891406       1.42153057      -1.21689737       0.00000000
Si       0.96195709      -1.27065259      -1.75162034       0.00000000
Si       1.38816865       1.37771047       1.34143461       0.00000000
Si       2.35569692       0.16402401      -2.92781831       0.00000000
Si      -2.68858307       0.00498474       2.71957452       0.00000000
Si      -2.06643539      -3.23118669       0.25450398       0.00000000
Si       2.73491184       0.01417230       2.71807492       0.00000000
Si       0.02208924       2.72342738       2.73100537       0.00000000
Si      -0.18595035       2.90486541      -2.54588584       0.00000000
