10
Lattice="16.290000149 0.0 0.0 0.0 16.290000149 0.0 0.0 0.0 29.1751946751" Properties=species:S:1:pos:R:3:initial_magmoms:R:1 pbc="T T T"
Si      -1.36792344       1.33837012      -1.36469891       0.00000000
Si      -1.33275007      -1.39957165       1.34097947       0.00000000
Si       1.29872026      -1.35426916      -1.42150301       0.00000000
Si       1.35560494       1.38316762       1.35148254       0.00000000
Si       2.77224852       0.00676035       2.60499478       0.00000000
Si      -2.73608472      -0.08006535       2.65380488       0.00000000
Si       2.60757290      -2.78264154      -0.12513241       0.00000000
Si      -0.00907353       2.69304653      -2.71603557       0.00000000
Si      -2.71200809       2.69770547       0.00268412       0.00000000
Si       0.03358998      -2.64212399       2.78874016       0.00000000
