10
Lattice="16.290000149 0.0 0.0 0.0 16.290000149 0.0 0.0 0.0 29.1751946751" Properties=species:S:1:pos:R:3:initial_magmoms:R:1 pbc="T T T"
Si      -1.34429968       1.35211888       1.34425001       0.00000000
Si       1.39572721      -1.42755787       1.22457045       0.00000000
Si       1.39779604       1.22849407      -1.42742557       0.00000000
Si      -1.50529375      -1.28223478      -1.28610093       0.00000000
H        0.51512238       2.08129187      -2.31411809       0.00000000
Si       2.70353729       0.01778868       2.59546033       0.00000000
Si      -2.55707390       2.76754071      -0.10640193       0.00000000
Si      -2.66693366      -0.05020578       2.68704710       0.00000000
Si       2.42764985      -0.25721910      -2.90109383       0.00000000
Si       0.06882525      -2.80938972       2.60121951       0.00000000
