10
Lattice="16.290000149 0.0 0.0 0.0 16.290000149 0.0 0.0 0.0 29.1751946751" Properties=species:S:1:pos:R:3:initial_magmoms:R:1 pbc="T T T"
Si       1.74408887       0.31994538      -1.49482027       0.00000000
Si      -1.91888057       1.06574394      -0.76876638       0.00000000
Si       0.64365049       0.67536223       2.14510619       0.00000000
Si      -0.03829779      -2.14557547       0.97801088       0.00000000
Si       1.86680144      -1.98449995      -1.72994317       0.00000000
Si      -0.59795704      -1.11174690       2.98832766       0.00000000
H        1.33594291       2.99320282       0.00417205       0.00000000
Si      -0.75725695       2.50248285      -2.27753240       0.00000000
Si      -2.88657174       1.47662010       1.38833081       0.00000000
Si       2.15541137      -2.87072482       0.51100353       0.00000000
