10
Lattice="16.290000149 0.0 0.0 0.0 16.290000149 0.0 0.0 0.0 29.1751946751" Properties=species:S:1:pos:R:3:initial_magmoms:R:1 pbc="T T T"
Si      -1.43187472       1.32053257      -1.28248321       0.00000000
Si      -1.38132685      -1.31631346       1.36396953       0.00000000
Si       1.33431391       1.40455639       1.33771185       0.00000000
Si       1.34879572      -1.27725004      -1.45998509       0.00000000
Si      -0.07421724       2.65976606      -2.59707955       0.00000000
Si       2.68631876      -2.61537581      -0.03889053       0.00000000
Si      -0.02709027      -2.68838759       2.70159385       0.00000000
Si       2.69570180       0.06333552       2.70063107       0.00000000
Si      -2.75351502      -2.64306881       0.00055433       0.00000000
Si      -2.75221182       0.06061509       2.68700625       0.00000000
