10
Lattice="16.290000149 0.0 0.0 0.0 16.290000149 0.0 0.0 0.0 29.1751946751" Properties=species:S:1:pos:R:3:initial_magmoms:R:1 pbc="T T T"
Si      -1.36676359      -1.34972425      -1.33744927       0.00000000
Si      -1.36785502       1.34583094       1.34926523       0.00000000
Si       1.32331816      -1.38520387       1.35933067       0.00000000
Si       1.38580709       1.33086043      -1.36834581       0.00000000
Si       0.07755669      -2.67930592      -2.62080774       0.00000000
Si       2.69257901      -0.01521486       2.68347606       0.00000000
Si      -0.00990432       2.71212212       2.67909978       0.00000000
Si      -2.69477327       2.71441901      -0.02614097       0.00000000
Si       0.05921415       2.74295910      -2.67842875       0.00000000
Si       2.72003255       2.70852203      -0.02450716       0.00000000
