10
Lattice="16.290000149 0.0 0.0 0.0 16.290000149 0.0 0.0 0.0 29.1751946751" Properties=species:S:1:pos:R:3:initial_magmoms:R:1 pbc="T T T"
Si      -1.24276411       1.11171269      -1.60591942       0.00000000
Si      -1.89887645      -0.01838978       1.33345227       0.00000000
Si       1.56812428       1.69238603       0.43765710       0.00000000
Si       0.43368867      -2.29082851       0.28492495       0.00000000
H        1.77590324       0.55306017      -2.36727530       0.00000000
H       -2.07808274       1.36847567       1.94560621       0.00000000
Si      -1.06917787      -1.26555219       3.04425651       0.00000000
Si       2.04719690      -2.45822455      -1.39649987       0.00000000
Si       0.83377108       2.32095198       2.61486592       0.00000000
Si      -2.58263291       2.65455489      -0.45186542       0.00000000
