10
Lattice="16.290000149 0.0 0.0 0.0 16.290000149 0.0 0.0 0.0 29.1751946751" Properties=species:S:1:pos:R:3:initial_magmoms:R:1 pbc="T T T"
Si       1.21277422      -1.41542182       1.45065195       0.00000000
Si      -1.49025808      -1.25069734      -1.37628146       0.00000000
Si      -1.48336741       1.29415336       1.34328431       0.00000000
Si       1.62639361       1.48457124      -0.93150562       0.00000000
Si       2.55707390      -2.76754071       0.10640193       0.00000000
H        1.17605656      -1.11500164      -3.44634905       0.00000000
Si       0.90526789       3.67458420      -0.51648847       0.00000000
Si      -2.80090263      -2.61674417       0.11010718       0.00000000
H        3.07219629      -0.68624884      -2.20771616       0.00000000
Si      -0.18901287       2.58044842       2.85000807       0.00000000
