10
Lattice="16.290000149 0.0 0.0 0.0 16.290000149 0.0 0.0 0.0 29.1751946751" Properties=species:S:1:pos:R:3:initial_magmoms:R:1 pbc="T T T"
Si       1.39373983       1.43467660      -1.17619797       0.00000000
Si       1.70422724      -1.59392764       0.01951821       0.00000000
Si      -0.96195709       1.27065259       1.75162034       0.00000000
Si      -1.59270589      -0.81915895      -1.55757612       0.00000000
Si      -2.06487155       1.21811734      -2.61488517       0.00000000
Si      -0.17023050       2.71733492      -2.29833431       0.00000000
Si       0.63920332      -3.35811837      -1.04213795       0.00000000
Si      -2.41087115       2.69218316       0.53472297       0.00000000
Si      -0.29502819      -2.32282370      -2.87789955       0.00000000
Si       2.35201538      -2.02263158       2.15074284       0.00000000
