10
Lattice="16.290000149 0.0 0.0 0.0 16.290000149 0.0 0.0 0.0 29.1751946751" Properties=species:S:1:pos:R:3:initial_magmoms:R:1 pbc="T T T"
Si       1.41194065       1.39002571      -1.25733419       0.00000000
Si       1.36419466      -1.34925184       1.37167178       0.00000000
Si      -1.28287726       1.34374582       1.45639654       0.00000000
Si      -1.38912488      -1.28647018      -1.43533789       0.00000000
Si      -2.69333487      -2.64020177      -0.00110866       0.00000000
Si      -2.59738677       2.78077633       0.18106126       0.00000000
Si       0.13497894       2.76461013      -2.64505232       0.00000000
Si       2.74363187       0.07480368      -2.67460388       0.00000000
Si       2.71121477       2.71640639       0.17014974       0.00000000
Si       2.71709546      -2.71780733       0.01374152       0.00000000
