10
Lattice="16.290000149 0.0 0.0 0.0 16.290000149 0.0 0.0 0.0 29.1751946751" Properties=species:S:1:pos:R:3:initial_magmoms:R:1 pbc="T T T"
Si      -1.34878965      -1.35386191       1.35609222       0.00000000
Si      -1.36742541       1.35822763      -1.33957906       0.00000000
Si       1.33189115      -1.34817670      -1.39051895       0.00000000
Si       1.31350951       1.36493911       1.39515781       0.00000000
Si       0.03232967       2.69250896      -2.67355649       0.00000000
Si       2.68135639      -2.70821252      -0.03063395       0.00000000
Si      -2.69605411       0.00803097       2.70570755       0.00000000
Si       2.68948510       2.71383257       0.04536743       0.00000000
Si      -2.71934881      -2.70182684       0.00212979       0.00000000
Si       2.70061117       0.01448181       2.72624689       0.00000000
