10
Lattice="16.290000149 0.0 0.0 0.0 16.290000149 0.0 0.0 0.0 29.1751946751" Properties=species:S:1:pos:R:3:initial_magmoms:R:1 pbc="T T T"
Si       1.35430174       1.39693267      -1.31948319       0.00000000
Si      -1.35290080       1.36855549       1.35793026       0.00000000
Si       1.37507149      -1.34767171       1.35956407       0.00000000
Si      -1.36145305      -1.36581877      -1.36506068       0.00000000
Si       2.73789290       0.04333140      -2.64460303       0.00000000
Si      -2.70721883      -2.69534342       0.01657151       0.00000000
Si       2.68990256       2.72205902       0.08527909       0.00000000
Si      -2.70041124       0.02086749       2.72569256       0.00000000
Si       0.01910817      -2.69169446       2.73447430       0.00000000
Si      -2.71709546       2.71780733      -0.01374152       0.00000000
