10
Lattice="16.290000149 0.0 0.0 0.0 16.290000149 0.0 0.0 0.0 29.1751946751" Properties=species:S:1:pos:R:3:initial_magmoms:R:1 pbc="T T T"
Si       1.38536677      -1.34429968      -1.36148963       0.00000000
Si      -1.36133902      -1.37987704       1.35057811       0.00000000
Si      -1.33318990       1.31484736      -1.44081699       0.00000000
Si       1.41395572       1.35506737       1.32487477       0.00000000
Si      -2.70161507      -2.67050117      -0.07719757       0.00000000
H       -1.10400589       2.93837394       2.14609815       0.00000000
Si       2.70303230      -0.06784785       2.68061689       0.00000000
Si       0.08307900       2.42958836       2.94555683       0.00000000
Si       2.72880309       2.68757309      -0.11608810       0.00000000
Si       0.03943809      -2.67577913      -2.76484567       0.00000000
