10
Lattice="16.290000149 0.0 0.0 0.0 16.290000149 0.0 0.0 0.0 29.1751946751" Properties=species:S:1:pos:R:3:initial_magmoms:R:1 pbc="T T T"
Si       1.29697723       1.29880171      -1.49750439       0.00000000
Si       1.26229582      -1.64141299       1.15490008       0.00000000
Si      -0.99290809       1.77231944       1.26337345       0.00000000
Si      -1.29803608      -1.67738132      -1.17406818       0.00000000
H        0.22994964      -2.74883979       1.36501983       0.00000000
H       -3.05792625      -1.03693996       0.35529552       0.00000000
H       -2.48512097      -1.16859574      -1.97352687       0.00000000
H       -0.29489787      -1.20945106       3.17986282       0.00000000
H       -1.86225653       0.48967740      -3.08046293       0.00000000
Si      -2.53117280       2.75675673      -0.24052030       0.00000000
