10
Lattice="16.290000149 0.0 0.0 0.0 16.290000149 0.0 0.0 0.0 29.1751946751" Properties=species:S:1:pos:R:3:initial_magmoms:R:1 pbc="T T T"
Si       0.84939319      -1.87478354      -1.11720573       0.00000000
Si       1.49025808       1.25069734       1.37628146       0.00000000
Si      -1.39027006       1.31437495      -1.43080990       0.00000000
Si      -1.31064454      -1.36604683       1.48638864       0.00000000
H        1.38274408      -1.61376886      -2.50305665       0.00000000
H        2.66631464       0.13569570      -2.07006759       0.00000000
Si       0.00689067       2.54485070       2.71956577       0.00000000
Si      -2.79909444       2.50526848       0.03118828       0.00000000
H       -0.22626810      -0.77558320      -3.67470329       0.00000000
Si       2.54203823      -2.79907815       0.19658246       0.00000000
