10
Lattice="16.290000149 0.0 0.0 0.0 16.290000149 0.0 0.0 0.0 29.1751946751" Properties=species:S:1:pos:R:3:initial_magmoms:R:1 pbc="T T T"
Si      -1.35323963       1.41165883      -1.31352561       0.00000000
Si       1.17144649       1.46702854       1.45010929       0.00000000
Si      -1.48950386      -1.20135493       1.43250498       0.00000000
Si       1.01590957      -1.24063012      -1.83993365       0.00000000
Si      -2.45788572      -0.29598930      -2.56029838       0.00000000
Si      -1.04394466      -2.24852501      -2.55883962       0.00000000
Si       2.40557690       0.50370309      -2.75705590       0.00000000
Si       2.54304821       0.11482821       2.81208907       0.00000000
Si      -0.13383864      -2.54171243       2.81583808       0.00000000
Si       2.47076948       2.95228560       0.17627594       0.00000000
