10
Lattice="16.290000149 0.0 0.0 0.0 16.290000149 0.0 0.0 0.0 29.1751946751" Properties=species:S:1:pos:R:3:initial_magmoms:R:1 pbc="T T T"
Si       1.31084002       1.01116918      -1.67016319       0.00000000
Si       1.43366662      -1.62628349       0.93086376       0.00000000
Si      -1.83673010      -1.18334145      -0.99957134       0.00000000
Si      -0.10541259       1.73535743       1.80550692       0.00000000
H       -2.24487605       1.48991599       0.49942098       0.00000000
Si       2.72082098       2.30891204      -0.30642707       0.00000000
Si       0.63148186       0.41627466       3.59776831       0.00000000
Si       2.62438418      -0.45842341       2.61266786       0.00000000
Si      -2.90058114       2.33245109      -0.57294247       0.00000000
Si       0.14975397      -3.06463773       2.21413470       0.00000000
