10
Lattice="16.290000149 0.0 0.0 0.0 16.290000149 0.0 0.0 0.0 29.1751946751" Properties=species:S:1:pos:R:3:initial_magmoms:R:1 pbc="T T T"
Si      -1.35759232      -1.34469064      -1.36335685       0.00000000
Si      -1.36273996       1.35065278       1.35235780       0.00000000
Si       1.32209641      -1.36673101       1.39089823       0.00000000
Si       1.35816247       1.37683081      -1.35521697       0.00000000
Si       2.69439860       0.01879866       2.69847211       0.00000000
Si       0.01068624       2.71640639       2.68236740       0.00000000
Si       2.69609276      -2.70555725       0.02707458       0.00000000
Si       0.00734679      -2.70610623      -2.70804157       0.00000000
Si      -2.72414414      -2.69201701      -0.01485017       0.00000000
Si      -2.71852409       0.02275713      -2.69815118       0.00000000
