10
Lattice="16.290000149 0.0 0.0 0.0 16.290000149 0.0 0.0 0.0 29.1751946751" Properties=species:S:1:pos:R:3:initial_magmoms:R:1 pbc="T T T"
Si       1.30266244       1.32127165      -1.38987710       0.00000000
Si      -1.27439929      -1.46561131      -1.29505772       0.00000000
Si      -1.30605076       1.41269748       1.33806195       0.00000000
Si       1.23818662      -1.48361176       1.36434880       0.00000000
H       -1.92104714      -2.29273607      -0.21860973       0.00000000
Si      -2.58996341      -0.02565675       2.62133289       0.00000000
Si       2.53438519       2.68239450       0.03760683       0.00000000
Si      -0.16112439       2.62814880      -2.65298798       0.00000000
Si       2.69453055      -0.06678900      -2.67338144       0.00000000
Si       2.57785180      -2.79138927      -0.05496607       0.00000000
