10
Lattice="16.290000149 0.0 0.0 0.0 16.290000149 0.0 0.0 0.0 29.1751946751" Properties=species:S:1:pos:R:3:initial_magmoms:R:1 pbc="T T T"
Si      -1.32659294       1.41209866      -1.31008294       0.00000000
Si       1.33422546       1.37766160       1.34383864       0.00000000
Si       1.35193920      -1.32501232      -1.40665284       0.00000000
Si      -1.38580709      -1.33086043       1.36834581       0.00000000
Si      -2.71645575       0.06675642      -2.58340222       0.00000000
Si       2.64345929      -2.67962357       0.02509067       0.00000000
Si       2.67525737       0.01886382       2.70780817       0.00000000
Si       2.66605352       2.73546570      -0.03909476       0.00000000
Si      -0.05597293       2.73696438       2.66632104       0.00000000
Si      -2.75257068      -2.68058468       0.03089653       0.00000000
