10
Lattice="16.290000149 0.0 0.0 0.0 16.290000149 0.0 0.0 0.0 29.1751946751" Properties=species:S:1:pos:R:3:initial_magmoms:R:1 pbc="T T T"
Si      -1.35928648      -1.35408997      -1.35378738       0.00000000
Si       1.34662915      -1.36111096       1.36592426       0.00000000
Si      -1.37005417       1.35252613       1.35110327       0.00000000
Si       1.35596332       1.34402275      -1.37491022       0.00000000
Si       2.68956047       2.69513165       0.01957656       0.00000000
Si       0.02085120      -2.71233389      -2.68916522       0.00000000
Si      -2.69111454      -2.71189406       0.02914602       0.00000000
Si       2.70982523      -0.00558747       2.71413919       0.00000000
Si      -0.01910817       2.69169446      -2.73447430       0.00000000
Si      -0.03088584       2.71479368       2.71708588       0.00000000
