10
Lattice="16.290000149 0.0 0.0 0.0 16.290000149 0.0 0.0 0.0 29.1751946751" Properties=species:S:1:pos:R:3:initial_magmoms:R:1 pbc="T T T"
Si       2.26957821      -0.48956337       0.12699962       0.00000000
Si      -0.27916173       0.73197812       2.21124635       0.00000000
Si      -0.58696129       1.73114809      -1.52898443       0.00000000
Si      -1.52332678      -1.85950352      -0.42362383       0.00000000
H       -1.36884871       1.80453780       2.25915202       0.00000000
Si       2.53232939      -1.31817052      -2.02758850       0.00000000
Si      -1.09755505      -1.20674692       3.22992745       0.00000000
Si      -2.66211182      -1.98798275       1.64020027       0.00000000
Si      -2.57986361       2.60584616      -0.54388398       0.00000000
Si      -1.77767885       0.56328801      -3.21078852       0.00000000
