10
Lattice="16.290000149 0.0 0.0 0.0 16.290000149 0.0 0.0 0.0 29.1751946751" Properties=species:S:1:pos:R:3:initial_magmoms:R:1 pbc="T T T"
H       -0.88267366       0.85279780      -0.88669252       0.00000000
Si       1.02985381      -1.48571317      -1.47366826       0.00000000
Si      -1.39779604      -1.22849407       1.42742557       0.00000000
Si       1.90034255       1.30025152       0.63024256       0.00000000
Si       1.94929400       0.35161965      -2.64090945       0.00000000
Si       0.01057221       1.83228293      -2.96457906       0.00000000
H       -2.77881339       0.42404499      -2.12532541       0.00000000
Si       2.14262372       0.78553639       2.93050243       0.00000000
Si      -0.00206883      -2.65605194       2.65199602       0.00000000
Si       2.53052120      -2.79775866      -0.17756023       0.00000000
