10
Lattice="16.290000149 0.0 0.0 0.0 16.290000149 0.0 0.0 0.0 29.1751946751" Properties=species:S:1:pos:R:3:initial_magmoms:R:1 pbc="T T T"
Si       1.43571916      -1.35467641       1.28554660       0.00000000
Si      -1.25801155      -1.36578619      -1.45371243       0.00000000
Si       1.37977930       1.32980158      -1.38582175       0.00000000
Si      -1.43581690       1.27964467       1.40604016       0.00000000
Si      -0.03837924       2.69751162       2.65753931       0.00000000
Si       0.08871534      -2.76058488       2.59872212       0.00000000
Si      -2.69612534       2.67790335      -0.01832202       0.00000000
Si      -2.59558346      -2.80991100      -0.19363577       0.00000000
Si      -2.72795600      -0.30654522       2.69336645       0.00000000
Si      -2.64398105      -0.02026476      -2.79813457       0.00000000
