10
Lattice="16.290000149 0.0 0.0 0.0 16.290000149 0.0 0.0 0.0 29.1751946751" Properties=species:S:1:pos:R:3:initial_magmoms:R:1 pbc="T T T"
Si       1.38359116      -1.35360127      -1.32511984       0.00000000
Si       1.33560082       1.32512635       1.40476228       0.00000000
Si      -1.35430174      -1.39693267       1.31948319       0.00000000
Si      -1.32776533       1.39567834      -1.36886221       0.00000000
Si      -0.02968038      -2.64805355      -2.66862063       0.00000000
Si      -2.65945655       2.71090037       0.04840748       0.00000000
Si       2.70622514       0.04872339      -2.66791692       0.00000000
Si      -2.70720254      -0.02837718       2.67741345       0.00000000
Si       2.68708439       2.71941908       0.09532703       0.00000000
Si      -2.75419920       0.04160466      -2.65358957       0.00000000
