10
Lattice="16.290000149 0.0 0.0 0.0 16.290000149 0.0 0.0 0.0 29.1751946751" Properties=species:S:1:pos:R:3:initial_magmoms:R:1 pbc="T T T"
Si       1.36443412       1.36063855      -1.32989290       0.00000000
Si      -1.35135325       1.36373365       1.35542119       0.00000000
Si       1.38176668      -1.33894027       1.35066564       0.00000000
Si      -1.33359715      -1.35110890      -1.39448678       0.00000000
Si       2.70210377      -0.07902279      -2.61882382       0.00000000
Si      -2.68956047      -2.69513165      -0.01957656       0.00000000
Si      -0.01876608       2.71862183      -2.66877176       0.00000000
Si       0.02026476      -2.70071912       2.69456263       0.00000000
Si      -2.72044631       0.01966203       2.69750932       0.00000000
Si       0.01423746       2.72600120       2.70769147       0.00000000
