10
Lattice="16.290000149 0.0 0.0 0.0 16.290000149 0.0 0.0 0.0 29.1751946751" Properties=species:S:1:pos:R:3:initial_magmoms:R:1 pbc="T T T"
H        0.84590713       0.93178801       0.81098289       0.00000000
Si       1.43000137      -1.44171388      -1.12336170       0.00000000
Si      -1.29415906       1.29472921      -1.42713382       0.00000000
Si      -1.83174536      -0.82461610       1.16426532       0.00000000
H        1.65918539       0.18181269       2.46355344       0.00000000
H        2.28204983       1.84008584       1.35661738       0.00000000
Si      -2.37843776       2.71440272       0.07016634       0.00000000
Si       2.78008401      -0.05181849      -2.46880497       0.00000000
Si       0.06919992      -2.75019186      -2.51151746       0.00000000
Si      -1.20554146      -1.22702797       3.31319346       0.00000000
