10
Lattice="16.290000149 0.0 0.0 0.0 16.290000149 0.0 0.0 0.0 29.1751946751" Properties=species:S:1:pos:R:3:initial_magmoms:R:1 pbc="T T T"
Si      -0.97767694       1.45818307       1.50406881       0.00000000
Si       1.56397033      -1.28265832       1.12213634       0.00000000
Si       1.61417611       1.02561841      -1.40186810       0.00000000
Si      -1.89464105      -1.49921758      -0.31655086       0.00000000
H       -0.38333628      -2.35849880      -2.01626853       0.00000000
H        0.75290752      -0.72052300      -3.15789390       0.00000000
H       -2.48955185      -1.57545478      -1.72489586       0.00000000
Si       0.17023050      -2.71733492       2.29833431       0.00000000
Si      -2.67032198       2.38247768       0.19028062       0.00000000
H        1.40320432      -1.14380236      -3.11074678       0.00000000
