10
Lattice="16.290000149 0.0 0.0 0.0 16.290000149 0.0 0.0 0.0 29.1751946751" Properties=species:S:1:pos:R:3:initial_magmoms:R:1 pbc="T T T"
Si      -1.36150192      -1.36177885       1.34389699       0.00000000
Si       1.35330805       1.35387820       1.36029345       0.00000000
Si       1.37088496      -1.37692855      -1.32303673       0.00000000
Si      -1.38176668       1.33894027      -1.35066564       0.00000000
Si       2.71404434      -0.04191417       2.66419125       0.00000000
Si      -0.01733256       2.69957882      -2.68055854       0.00000000
Si      -0.00130320      -2.70368390      -2.68645193       0.00000000
Si      -2.73735534       0.00149868       2.67694081       0.00000000
Si       2.72893340       2.69451263       0.01633811       0.00000000
Si      -0.01221750      -2.74004319       2.68513904       0.00000000
