10
Lattice="16.290000149 0.0 0.0 0.0 16.290000149 0.0 0.0 0.0 29.1751946751" Properties=species:S:1:pos:R:3:initial_magmoms:R:1 pbc="T T T"
Si       1.27696171      -1.37458442       1.38771813       0.00000000
Si      -1.34301652      -1.21250364      -1.48612607       0.00000000
Si      -1.43247208       1.30586994       1.35350147       0.00000000
Si       1.33949902       1.40486427      -1.35134454       0.00000000
Si      -1.62381491       0.61548345      -3.05575154       0.00000000
Si      -0.29319068       2.59035274      -2.56178632       0.00000000
Si       2.60865293      -2.68980645      -0.02955155       0.00000000
Si      -2.82126024      -2.52011352      -0.10989129       0.00000000
Si      -0.07217610       2.70132023       2.67192268       0.00000000
Si       2.57623583      -0.04820374       2.81520206       0.00000000
