10
Lattice="16.290000149 0.0 0.0 0.0 16.290000149 0.0 0.0 0.0 29.1751946751" Properties=species:S:1:pos:R:3:initial_magmoms:R:1 pbc="T T T"
Si      -1.40333464       1.31950630       1.31282541       0.00000000
Si       1.36634005      -1.24255234       1.44776069       0.00000000
Si       1.33275007       1.39957165      -1.34097947       0.00000000
Si      -1.39066102      -1.36681246      -1.32254075       0.00000000
Si       2.56616372      -2.63551025      -0.03503941       0.00000000
Si      -0.11438024       2.72992710       2.63171926       0.00000000
Si       2.63147033       0.04530249      -2.76248248       0.00000000
Si      -2.72626184       2.69136866      -0.02511984       0.00000000
Si      -2.73121401      -0.00285075      -2.69640067       0.00000000
Si      -0.06969025      -2.70580160      -2.72633442       0.00000000
