10
Lattice="16.290000149 0.0 0.0 0.0 16.290000149 0.0 0.0 0.0 29.1751946751" Properties=species:S:1:pos:R:3:initial_magmoms:R:1 pbc="T T T"
Si       1.32180319      -1.48755298      -1.20863204       0.00000000
Si       1.35894439       1.28326853       1.41008967       0.00000000
Si      -1.35148357      -1.39429273       1.30943525       0.00000000
Si      -1.38264634       1.32517455      -1.36388784       0.00000000
Si       2.69615792       2.62273986       0.08479770       0.00000000
Si      -2.69946479       2.64767985       0.03583297       0.00000000
Si      -2.67732668      -0.04365624       2.69301051       0.00000000
Si       0.02704140       2.70262602       2.69464432       0.00000000
Si       0.03171663      -2.75227601       2.64831411       0.00000000
Si      -2.68708439      -2.71941908      -0.09532703       0.00000000
