10
Lattice="16.290000149 0.0 0.0 0.0 16.290000149 0.0 0.0 0.0 29.1751946751" Properties=species:S:1:pos:R:3:initial_magmoms:R:1 pbc="T T T"
Si       0.09914094      -0.69528979      -2.22431392       0.00000000
Si      -0.99513982      -1.78942557       1.14218261       0.00000000
Si       1.83826136       0.88283656       1.18044880       0.00000000
Si      -1.63483183       1.73429858      -0.08713464       0.00000000
H        2.53731413      -0.94936492      -0.73792528       0.00000000
Si       0.54608968       2.33116418       2.50402527       0.00000000
Si      -2.31195827      -0.46692027       2.54190342       0.00000000
Si      -2.10590606      -0.32117364      -3.01671221       0.00000000
Si      -2.06871599       1.97855084      -2.36899371       0.00000000
Si       2.03276396       0.33671430      -3.13539690       0.00000000
