10
Lattice="16.290000149 0.0 0.0 0.0 16.290000149 0.0 0.0 0.0 29.1751946751" Properties=species:S:1:pos:R:3:initial_magmoms:R:1 pbc="T T T"
Si      -1.32960773       1.35971002      -1.36382365       0.00000000
Si       1.30624624       1.43000137       1.32747136       0.00000000
Si      -1.34337441      -1.37155285       1.35638398       0.00000000
Si       1.37857384      -1.34658028      -1.35518779       0.00000000
Si       2.65139300       0.07133391       2.63910058       0.00000000
Si      -2.65057850       2.69869916       0.03997002       0.00000000
Si       2.68040549       2.68244174      -0.10360112       0.00000000
Si      -2.61192315      -0.00164529       2.77178937       0.00000000
Si      -2.67154373      -0.00185706      -2.71714423       0.00000000
Si       0.02318067      -2.71503803      -2.69196604       0.00000000
