10
Lattice="16.290000149 0.0 0.0 0.0 16.290000149 0.0 0.0 0.0 29.1751946751" Properties=species:S:1:pos:R:3:initial_magmoms:R:1 pbc="T T T"
Si      -1.31681845       1.32250529       1.39972081       0.00000000
Si       0.99513982       1.78942557      -1.14218261       0.00000000
Si       1.38264634      -1.32517455       1.36388784       0.00000000
Si      -1.29435454      -1.28629506      -1.50672375       0.00000000
Si       1.09428076       1.09413578      -3.36649654       0.00000000
Si      -2.51739146       2.72103438      -0.04109034       0.00000000
Si      -2.63220338      -2.64891530      -0.10030140       0.00000000
Si      -0.63969202       3.52372414      -1.22931725       0.00000000
Si       0.11166795       2.72833230       2.63982996       0.00000000
Si       0.03116277      -2.71946729       2.67332309       0.00000000
