10
Lattice="16.290000149 0.0 0.0 0.0 16.290000149 0.0 0.0 0.0 29.1751946751" Properties=species:S:1:pos:R:3:initial_magmoms:R:1 pbc="T T T"
H       -1.18708489       0.50878557      -0.79945868       0.00000000
Si       1.33087672      -1.07452099      -1.62068206       0.00000000
H       -1.75989017       0.64044136       1.52936370       0.00000000
Si       1.29803608       1.67738132       1.17406818       0.00000000
Si      -0.68975119      -1.86491180       1.41829374       0.00000000
H       -0.56422045       2.16705872      -1.90639475       0.00000000
H        1.52798572      -1.07145847       2.53908802       0.00000000
Si      -3.07362981       1.09512784       0.92257801       0.00000000
H       -2.00036315       1.25876089      -2.45202924       0.00000000
Si       2.56033190       0.03596832       2.32896827       0.00000000
