10
Lattice="16.290000149 0.0 0.0 0.0 16.290000149 0.0 0.0 0.0 29.1751946751" Properties=species:S:1:pos:R:3:initial_magmoms:R:1 pbc="T T T"
Si      -1.36994014       1.36151821      -1.31244613       0.00000000
Si      -1.38750076      -1.35899326       1.30427708       0.00000000
Si       1.32584311      -1.35063649      -1.38357526       0.00000000
Si       1.35444835       1.37237713       1.33750762       0.00000000
Si      -0.00674406      -2.70552467       2.64061769       0.00000000
Si      -0.02213811       2.69133608      -2.65717754       0.00000000
Si       2.67732668       0.04365624      -2.69301051       0.00000000
Si       2.73540053       0.01127268       2.65885219       0.00000000
Si      -2.70687674       0.01018125       2.69272459       0.00000000
Si      -0.00785178       2.72839584       2.67562793       0.00000000
