10
Lattice="16.290000149 0.0 0.0 0.0 16.290000149 0.0 0.0 0.0 29.1751946751" Properties=species:S:1:pos:R:3:initial_magmoms:R:1 pbc="T T T"
Si       0.97577101      -1.86070898       0.89579518       0.00000000
Si      -1.49780035      -1.01385703      -1.45989757       0.00000000
Si      -1.59291766       0.80070238       1.52857597       0.00000000
Si       1.65415178       1.52625898      -0.73798655       0.00000000
H        0.90702721       2.07875063       1.76565361       0.00000000
H        0.25673040       2.50202999       1.71850649       0.00000000
H       -0.87951340       0.86405419       2.86013186       0.00000000
Si      -1.96711526       2.74131381       0.15162349       0.00000000
Si       0.16037505       3.32180796      -0.85284929       0.00000000
Si      -0.07128504      -2.23691024      -2.75655992       0.00000000
