10
Lattice="16.290000149 0.0 0.0 0.0 16.290000149 0.0 0.0 0.0 29.1751946751" Properties=species:S:1:pos:R:3:initial_magmoms:R:1 pbc="T T T"
Si       1.76577086       1.01485072       1.15691317       0.00000000
Si       1.33966518      -1.30777750      -1.41931487       0.00000000
Si      -1.23818662       1.48361176      -1.36434880       0.00000000
Si      -1.29697723      -1.29880171       1.49750439       0.00000000
Si      -2.28988532       0.47351772       2.76087785       0.00000000
H       -3.15923376      -0.80912431      -1.58295854       0.00000000
Si      -2.51258591       0.01800045      -2.65940652       0.00000000
Si       3.41475870      -0.64558900       1.25018627       0.00000000
Si       2.75388969      -2.53343711      -0.03932816       0.00000000
Si       2.67874391       2.75501370      -0.11827624       0.00000000
