10
Lattice="16.290000149 0.0 0.0 0.0 16.290000149 0.0 0.0 0.0 29.1751946751" Properties=species:S:1:pos:R:3:initial_magmoms:R:1 pbc="T T T"
Si      -1.23033484       1.85363912       0.65819239       0.00000000
Si      -1.52884909      -0.72602902      -1.61960258       0.00000000
Si       1.62958645       0.65220274      -1.56702888       0.00000000
Si       0.07369596      -1.46093608       1.93244819       0.00000000
H        0.28147491      -2.60026195      -0.87248420       0.00000000
H        0.07773588       2.41631201       1.55495035       0.00000000
H        1.53419221      -0.46068120      -2.57287289       0.00000000
Si      -2.73719244      -2.04160943      -0.11112832       0.00000000
H       -0.25423803       3.10150200      -2.01784399       0.00000000
Si       2.32036391      -1.96853249       2.19400381       0.00000000
