10
Lattice="16.290000149 0.0 0.0 0.0 16.290000149 0.0 0.0 0.0 29.1751946751" Properties=species:S:1:pos:R:3:initial_magmoms:R:1 pbc="T T T"
Si       1.36230013      -1.35601871      -1.33812030       0.00000000
Si       1.37129221       1.34900749       1.34132958       0.00000000
Si      -1.34333857      -1.35510484       1.36691622       0.00000000
Si      -1.32742324       1.37215558      -1.37138003       0.00000000
Si       0.00130320       2.70466130       2.67583215       0.00000000
Si       2.71221986       0.01788642      -2.67399412       0.00000000
Si       0.00785178      -2.72839584      -2.67562793       0.00000000
Si       0.04473234      -2.70462872       2.70045602       0.00000000
Si      -2.68718213       2.72652248      -0.01689244       0.00000000
Si      -2.69902496      -2.71821458       0.01709666       0.00000000
