10
Lattice="16.290000149 0.0 0.0 0.0 16.290000149 0.0 0.0 0.0 29.1751946751" Properties=species:S:1:pos:R:3:initial_magmoms:R:1 pbc="T T T"
H        0.65570509      -0.84253510       1.07236346       0.00000000
Si      -1.42651531       1.22305321       1.29666235       0.00000000
Si      -1.43749477      -1.33325506      -1.20934099       0.00000000
Si       1.49877775       1.35868375      -1.16922510       0.00000000
Si       0.07128504       2.23691024       2.75655992       0.00000000
Si       0.08185725      -2.64982265      -2.41109644       0.00000000
Si       1.06385104      -3.51579254      -0.42662887       0.00000000
Si       2.79516855      -0.59709367       2.37844940       0.00000000
Si      -2.68100822       0.05711274      -2.57920391       0.00000000
Si       0.15868089       2.70624143      -2.54938686       0.00000000
