10
Lattice="16.290000149 0.0 0.0 0.0 16.290000149 0.0 0.0 0.0 29.1751946751" Properties=species:S:1:pos:R:3:initial_magmoms:R:1 pbc="T T T"
Si       0.67706128      -2.04863205      -0.77737306       0.00000000
Si      -0.57534652      -0.53173818       2.18863558       0.00000000
Si      -1.82619047       0.90047863      -1.12797138       0.00000000
Si       1.76070467       1.48794490      -0.33831556       0.00000000
H        1.36935370       0.26920854      -2.91830720       0.00000000
Si       0.16395885       1.53104824       3.06272441       0.00000000
Si      -2.85316095      -1.24737418      -1.53414844       0.00000000
Si       2.15060582       2.13130217       1.88582623       0.00000000
Si      -0.71286670       2.33479685      -2.69400830       0.00000000
Si       0.78493366       3.34865388      -1.23411073       0.00000000
