10
Lattice="16.290000149 0.0 0.0 0.0 16.290000149 0.0 0.0 0.0 29.1751946751" Properties=species:S:1:pos:R:3:initial_magmoms:R:1 pbc="T T T"
Si       0.46908684      -0.42350742       2.21121718       0.00000000
Si       1.82926928       1.29754738      -0.63409368       0.00000000
Si      -1.64898785       1.66043972      -0.09327310       0.00000000
Si      -0.66086902      -1.88784812      -1.28951443       0.00000000
H        1.82588096       0.15177393       2.48546401       0.00000000
Si       0.79008130       2.12910302      -2.58305504       0.00000000
Si      -2.07509352      -0.66218851      -2.66950114       0.00000000
Si      -3.41475870       0.64558900      -1.25018627       0.00000000
Si      -0.73601479       3.40060269      -1.36846251       0.00000000
Si       3.65192481      -0.16175970      -0.80319311       0.00000000
