10
Lattice="16.290000149 0.0 0.0 0.0 16.290000149 0.0 0.0 0.0 29.1751946751" Properties=species:S:1:pos:R:3:initial_magmoms:R:1 pbc="T T T"
Si       2.28682280       0.05888835      -0.48579617       0.00000000
Si      -0.73306630       2.15301674      -0.68339976       0.00000000
Si      -0.17831034       0.42849216       2.34273896       0.00000000
Si      -0.96557347      -2.05404521      -0.85608774       0.00000000
H       -2.34960446       0.24413823       0.92940500       0.00000000
H       -0.90015283       2.96890140       0.58207431       0.00000000
Si      -3.58989249       0.20738799       0.04440465       0.00000000
Si       3.02612817       2.12167478       0.38829267       0.00000000
Si      -3.02954907      -1.32573560      -1.70689476       0.00000000
Si       2.02673666       0.05437602       3.13513724       0.00000000
