10
Lattice="16.290000149 0.0 0.0 0.0 16.290000149 0.0 0.0 0.0 29.1751946751" Properties=species:S:1:pos:R:3:initial_magmoms:R:1 pbc="T T T"
H        1.18752472       0.41363568       0.87796913       0.00000000
Si       0.80021368       1.49524282      -1.64157150       0.00000000
Si      -0.77588945      -2.07785468       1.16058924       0.00000000
Si       0.72958024      -2.35185248      -0.62125660       0.00000000
Si      -2.23085036       1.44164872       1.02650005       0.00000000
Si      -3.43860726      -0.16780329      -0.38986813       0.00000000
Si      -0.28173555      -1.18022680       3.26006543       0.00000000
H        2.73448830      -1.56810799       1.47568135       0.00000000
Si       1.23872419       3.32027670      -0.16968293       0.00000000
H       -2.02953626      -1.53494155      -2.51420158       0.00000000
