10
Lattice="16.290000149 0.0 0.0 0.0 16.290000149 0.0 0.0 0.0 29.1751946751" Properties=species:S:1:pos:R:3:initial_magmoms:R:1 pbc="T T T"
H       -1.43356888       0.31744323       0.44675976       0.00000000
Si       0.45025560      -2.13185603       0.89757486       0.00000000
Si      -0.37916604       0.23459229      -2.36631251       0.00000000
Si       1.20775690       1.60945201       1.41636818       0.00000000
H        1.40907100      -1.36713826      -2.12433345       0.00000000
H        0.17052372       2.72047889      -0.98900992       0.00000000
H        0.35486136      -3.24473997      -0.10826915       0.00000000
Si      -0.79861726       2.97564546       1.49455770       0.00000000
Si       3.43860726       0.16780329       0.38986813       0.00000000
Si      -2.67558365       2.26393535       0.22059365       0.00000000
