10
Lattice="16.290000149 0.0 0.0 0.0 16.290000149 0.0 0.0 0.0 29.1751946751" Properties=species:S:1:pos:R:3:initial_magmoms:R:1 pbc="T T T"
Si      -1.23404896       1.31712796      -1.51538879       0.00000000
Si       1.34109055       1.45758034       1.29094401       0.00000000
Si      -1.61417611      -1.02561841       1.40186810       0.00000000
Si       1.77606614      -1.55431036      -0.62887132       0.00000000
H       -0.86126860      -1.74614141      -1.75602579       0.00000000
H       -0.21097179      -2.16942077      -1.70887868       0.00000000
H        1.33429762       0.61413301      -2.84819921       0.00000000
Si      -0.05020578      -2.30827673       2.52400444       0.00000000
Si       0.02055798       1.06881949      -3.45498490       0.00000000
Si       1.01125063      -3.42059052       0.65375776       0.00000000
