10
Lattice="16.290000149 0.0 0.0 0.0 16.290000149 0.0 0.0 0.0 29.1751946751" Properties=species:S:1:pos:R:3:initial_magmoms:R:1 pbc="T T T"
Si      -1.39155697      -1.34412049      -1.32822991       0.00000000
Si      -1.35975889       1.35436690       1.35448759       0.00000000
Si       1.32742324      -1.37215558       1.37138003       0.00000000
Si       1.36182772       1.34412049      -1.37143838       0.00000000
Si      -0.03466512      -2.73903321      -2.61669404       0.00000000
Si       2.70767495       2.70172910      -0.00936524       0.00000000
Si       2.69871545      -0.02314809       2.71270960       0.00000000
Si      -2.70079080       2.71316468      -0.00948194       0.00000000
Si       2.68972337      -2.72817429       0.03325972       0.00000000
Si      -0.01283652       2.71687880       2.70462807       0.00000000
