10
Lattice="16.290000149 0.0 0.0 0.0 16.290000149 0.0 0.0 0.0 29.1751946751" Properties=species:S:1:pos:R:3:initial_magmoms:R:1 pbc="T T T"
Si      -1.37037997      -1.37212789      -1.32904682       0.00000000
Si       1.34791606       1.35556748      -1.37385992       0.00000000
Si       1.40470300      -1.33904290       1.33353980       0.00000000
Si      -1.39965310       1.33766477       1.34325514       0.00000000
Si      -0.01863902       2.69905266       2.67449010       0.00000000
Si       0.06711643      -2.69935565       2.69392078       0.00000000
Si      -2.70177797      -0.00345837      -2.69917231       0.00000000
Si       0.00139280      -2.71080752      -2.70748724       0.00000000
Si      -2.70347213       2.72089755      -0.02777479       0.00000000
Si       2.70330923       2.72402523      -0.03708167       0.00000000
