10
Lattice="16.290000149 0.0 0.0 0.0 16.290000149 0.0 0.0 0.0 29.1751946751" Properties=species:S:1:pos:R:3:initial_magmoms:R:1 pbc="T T T"
Si      -1.41465619      -1.32638068       1.23947897       0.00000000
Si       1.36427122      -1.36756180      -1.26232315       0.00000000
Si       1.23189868       1.13580397       1.62467907       0.00000000
Si      -1.39432627       1.45280737      -1.19186505       0.00000000
Si      -0.37113507       1.06290622       3.41434386       0.00000000
Si       2.70184313       0.07656300      -2.52239981       0.00000000
Si      -2.49893489       0.09329283       2.73677914       0.00000000
Si      -0.05532084      -2.67792941      -2.57541113       0.00000000
Si       2.52403778       2.72199386       0.33735278       0.00000000
Si      -0.12049713      -2.62110989       2.66661279       0.00000000
