10
Lattice="16.290000149 0.0 0.0 0.0 16.290000149 0.0 0.0 0.0 29.1751946751" Properties=species:S:1:pos:R:3:initial_magmoms:R:1 pbc="T T T"
Si       1.43749477       1.33325506       1.20934099       0.00000000
Si      -1.24351345       1.39036780      -1.36986292       0.00000000
Si       1.51935202      -1.31656759      -1.20175544       0.00000000
Si      -1.16162362      -1.43673892       1.50876602       0.00000000
H        2.09319986       0.49071996       2.28170445       0.00000000
Si       2.50134581      -2.18253748       0.78271212       0.00000000
Si       0.75725695      -2.50248285       2.27753240       0.00000000
Si       0.01097946       2.55630827       2.50600335       0.00000000
Si      -2.41536719      -2.75560014       0.03565209       0.00000000
Si      -2.52794738      -0.04781115      -2.69050728       0.00000000
