10
Lattice="16.290000149 0.0 0.0 0.0 16.290000149 0.0 0.0 0.0 29.1751946751" Properties=species:S:1:pos:R:3:initial_magmoms:R:1 pbc="T T T"
Si      -1.33761752       1.35777151      -1.36484478       0.00000000
Si       1.34892604       1.38587176       1.32569167       0.00000000
Si       1.38877138      -1.35021295      -1.33356897       0.00000000
Si      -1.35223454      -1.36523233       1.36183974       0.00000000
Si       2.65777868      -0.04250061       2.62206227       0.00000000
Si      -2.66677076       2.70552467       0.02891262       0.00000000
Si       0.04184901      -2.71272485      -2.68370946       0.00000000
Si      -2.68938128       0.00537570      -2.72519658       0.00000000
Si      -2.69417054      -2.72679941       0.00851916       0.00000000
Si       0.02187747       2.71049312      -2.72572174       0.00000000
