10
Lattice="16.290000149 0.0 0.0 0.0 16.290000149 0.0 0.0 0.0 29.1751946751" Properties=species:S:1:pos:R:3:initial_magmoms:R:1 pbc="T T T"
Si       2.06397560      -0.72830962       0.85080703       0.00000000
Si       0.72187507       0.60705337      -2.16369079       0.00000000
Si      -1.30312834      -1.98348019      -0.11661325       0.00000000
Si      -0.56034343       1.53312359       1.75129941       0.00000000
H       -1.50129782       2.55897006      -0.73591511       0.00000000
H        0.67994461       1.56987383       2.63629977       0.00000000
H        0.09998802       1.92750449      -2.57015960       0.00000000
Si       0.12448818       3.51089251       0.19203113       0.00000000
Si       3.09721773      -1.40204122      -1.22500807       0.00000000
Si       1.27048969      -2.23079497       2.55142912       0.00000000
