10
Lattice="10.86 0.0 0.0 0.0 10.86 0.0 0.0 0.0 10.86" Properties=species:S:1:pos:R:3:initial_magmoms:R:1 pbc="T T T"
Si      -1.35750000      -1.35750000       1.35750000       0.00000000
Si      -1.35750000       1.35750000      -1.35750000       0.00000000
Si       1.35750000      -1.35750000      -1.35750000       0.00000000
Si       1.35750000       1.35750000       1.35750000       0.00000000
Si       0.08923662      -2.48273718       2.42318094       0.00000000
Si      -2.64846078      -0.19916154       2.53698288       0.00000000
Si      -0.21200892      -2.64991602      -2.68082358       0.00000000
Si       2.71500000       2.71500000       0.00000000       0.00000000
Si      -2.71500000      -2.71500000       0.00000000       0.00000000
Si       2.71500000      -2.71500000       0.00000000       0.00000000
