10
Lattice="10.86 0.0 0.0 0.0 10.86 0.0 0.0 0.0 10.86" Properties=species:S:1:pos:R:3:initial_magmoms:R:1 pbc="T T T"
Si      -1.21273620       1.15189848      -1.37635296       0.00000000
Si       1.50226380       1.15189848       1.33864704       0.00000000
Si      -1.21273620      -1.56310152       1.33864704       0.00000000
Si      -2.57023620       2.50939848      -0.01885296       0.00000000
Si       2.37092262      -0.94832778      -2.59143492       0.00000000
Si       0.73958772      -2.99564412      -1.97174160       0.00000000
Si       0.14476380       2.50939848       2.69614704       0.00000000
Si       0.20645946       2.48347566      -2.73808836       0.00000000
Si      -2.57023620      -0.20560152       2.69614704       0.00000000
Si      -2.57023620      -0.20560152      -2.73385296       0.00000000
