10
Lattice="10.86 0.0 0.0 0.0 10.86 0.0 0.0 0.0 10.86" Properties=species:S:1:pos:R:3:initial_magmoms:R:1 pbc="T T T"
Si      -2.14178748       0.13447938       1.18029738       0.00000000
Si       1.15129032       1.10946846      -1.96893972       0.00000000
Si       1.28218590      -1.86839784       1.15144236       0.00000000
Si       2.41955370       2.23470564      -0.31962066       0.00000000
Si       2.41955370      -0.48029436       2.39537934       0.00000000
Si      -2.88803238       2.03628258      -0.02722602       0.00000000
Si      -0.29544630       2.23470564      -3.03462066       0.00000000
Si       0.85132626       3.60913638       1.10590638       0.00000000
Si       2.41955370      -0.48029436      -3.03462066       0.00000000
Si       0.85004478       0.94228962       3.78705576       0.00000000
