10
Lattice="10.86 0.0 0.0 0.0 10.86 0.0 0.0 0.0 10.86" Properties=species:S:1:pos:R:3:initial_magmoms:R:1 pbc="T T T"
Si       1.29594552      -1.29594552       1.32447474       0.00000000
Si      -1.29795462       1.29795462       1.32806940       0.00000000
Si       1.41704538       1.29795462      -1.38693060       0.00000000
Si      -1.29795462      -1.41704538      -1.38693060       0.00000000
Si      -2.65545462       2.65545462      -0.02943060       0.00000000
Si       0.05954538       2.65545462       2.68556940       0.00000000
Si      -2.65545462      -0.05954538       2.68556940       0.00000000
Si       0.05954538       2.65545462      -2.74443060       0.00000000
Si      -2.65545462      -0.05954538      -2.74443060       0.00000000
Si       2.77454538       2.65545462      -0.02943060       0.00000000
