10
Lattice="16.28999089631971 0.0 0.0 0.0 16.28999089631971 0.0 0.0 0.0 34.36671206372826" Properties=species:S:1:pos:R:3:initial_magmoms:R:1 pbc="T T T"
Si       1.35595284       1.35487188       1.38129172       0.00000000
Si      -1.35532122      -1.36682711       1.37266567       0.00000000
Si       1.40379494      -1.27914782      -1.44020317       0.00000000
Si      -1.45250736       1.33705062      -1.37754231       0.00000000
Si       2.68869476       2.70014895       0.03374126       0.00000000
Si       2.70679295      -2.70775353       0.00780468       0.00000000
Si      -2.70892248      -2.72077928      -0.01303530       0.00000000
Si      -2.73109317       2.70710478       0.02423198       0.00000000
Si      -0.00084593       2.70844056       2.73547840       0.00000000
Si       2.71495424      -0.00483813       2.73420683       0.00000000
