10
Lattice="16.28999089631971 0.0 0.0 0.0 16.28999089631971 0.0 0.0 0.0 34.36671206372826" Properties=species:S:1:pos:R:3:initial_magmoms:R:1 pbc="T T T"
Si      -1.20243006      -0.36368307      -1.94687533       0.00000000
Si       0.40506714      -1.83665745       1.39092471       0.00000000
Si       2.16108027       0.50983790      -0.74080926       0.00000000
Si      -1.64784753       1.02443737       1.35545825       0.00000000
Si      -3.24418608      -0.67874796       1.17475797       0.00000000
Si       0.88402572      -0.68071905       3.38230496       0.00000000
Si      -1.86781140      -2.52311805       1.77830651       0.00000000
Si      -3.42322947      -0.94313466      -1.17413937       0.00000000
Si       3.39082866       1.21794791       1.11767483       0.00000000
Si      -1.07269650       0.63276550       3.62060387       0.00000000
