10
Lattice="16.28999089631971 0.0 0.0 0.0 16.28999089631971 0.0 0.0 0.0 34.36671206372826" Properties=species:S:1:pos:R:3:initial_magmoms:R:1 pbc="T T T"
Si      -0.89238249      -2.10997854       0.46175140       0.00000000
Si       0.26704197       1.14127740       2.03918437       0.00000000
Si       2.14215129      -0.13203045      -0.96838575       0.00000000
Si      -1.70601912       1.11935106      -1.24345707       0.00000000
Si      -3.11143887       1.58096079       0.62093810       0.00000000
Si      -0.94687254      -3.06478431      -1.68964034       0.00000000
Si       2.60392392       2.06632134      -1.65273047       0.00000000
Si       1.11656547       3.54641445      -0.54680906       0.00000000
Si       1.81452681      -0.12450447       3.29900000       0.00000000
Si      -1.88279820       1.82707011       2.73682901       0.00000000
