10
Lattice="16.28999089631971 0.0 0.0 0.0 16.28999089631971 0.0 0.0 0.0 34.36671206372826" Properties=species:S:1:pos:R:3:initial_magmoms:R:1 pbc="T T T"
Si      -1.41310863      -1.01126691       1.57598956       0.00000000
Si       2.08057509      -0.86993487      -0.79686140       0.00000000
Si      -1.22354190      -1.05233400      -1.82827574       0.00000000
Si       0.36158913       2.51761950       0.32521238       0.00000000
Si      -2.26502676      -2.75087601      -0.65420510       0.00000000
Si      -2.09710944       0.63957798       3.13409678       0.00000000
Si       2.54096307       0.18153576      -2.91161821       0.00000000
Si       1.82853621      -2.97196389      -1.79634904       0.00000000
Si       2.50028694       2.99838627      -0.60066173       0.00000000
Si      -2.94067080       0.20864232      -2.73053990       0.00000000
