10
Lattice="16.28999089631971 0.0 0.0 0.0 16.28999089631971 0.0 0.0 0.0 34.36671206372826" Properties=species:S:1:pos:R:3:initial_magmoms:R:1 pbc="T T T"
Si      -1.35617508      -1.13453334      -1.48639549       0.00000000
Si      -1.95900282       0.93429666       1.02278829       0.00000000
Si       1.41784902       1.49773518      -1.29713791       0.00000000
Si       0.70556877      -1.40343237       1.87807313       0.00000000
Si      -0.34179678       1.94732289       2.48203407       0.00000000
Si       1.48610412       0.55138392       2.81288259       0.00000000
Si       0.10847511      -2.40127632      -2.81240145       0.00000000
Si      -3.17782062      -2.07471069      -0.37518161       0.00000000
Si      -2.60141526       0.33495498      -2.83054709       0.00000000
Si      -3.31936443      -1.11132009       1.75844254       0.00000000
