10
Lattice="16.28999089631971 0.0 0.0 0.0 16.28999089631971 0.0 0.0 0.0 34.36671206372826" Properties=species:S:1:pos:R:3:initial_magmoms:R:1 pbc="T T T"
Si       2.14984017      -0.68579271      -0.69764464       0.00000000
Si       0.03339450       2.30790204       0.60492320       0.00000000
Si      -0.25054020      -0.89041140       2.27573058       0.00000000
Si      -1.22864067      -0.24610932      -2.11589091       0.00000000
Si      -3.35821608      -1.24631532       0.30813211       0.00000000
Si       3.28632831       1.35938421      -0.89387868       0.00000000
Si      -2.05529301      -2.31120891       1.97986739       0.00000000
Si       2.35284615       2.73297330       0.81555690       0.00000000
Si      -2.07679581       0.43147323       3.04393012       0.00000000
Si       1.88279820      -1.82707011      -2.73682901       0.00000000
