10
Lattice="16.28999089631971 0.0 0.0 0.0 16.28999089631971 0.0 0.0 0.0 34.36671206372826" Properties=species:S:1:pos:R:3:initial_magmoms:R:1 pbc="T T T"
Si       0.35253189      -0.43215741      -2.30689299       0.00000000
Si      -0.87070050      -1.91795202       1.18941470       0.00000000
Si       1.87478352       0.97469586       1.23209818       0.00000000
Si      -1.83223404       1.63774773      -0.39390327       0.00000000
Si       1.46917881       1.78771347      -2.35191341       0.00000000
Si      -2.14661475      -0.42730299       2.54826494       0.00000000
Si       0.57379896       2.34309155       2.56705667       0.00000000
Si      -2.02064418      -0.08260659      -3.06055541       0.00000000
Si      -3.47996754       1.03089636       1.17903938       0.00000000
Si       2.92563513       2.50455070      -0.17677426       0.00000000
