10
Lattice="16.28999089631971 0.0 0.0 0.0 16.28999089631971 0.0 0.0 0.0 34.36671206372826" Properties=species:S:1:pos:R:3:initial_magmoms:R:1 pbc="T T T"
Si      -1.35591444       1.35311953       1.35793265       0.00000000
Si      -1.35689184      -1.35860229      -1.35669545       0.00000000
Si       1.35852084       1.35674816      -1.35703912       0.00000000
Si       1.35843939      -1.35879777       1.36552770       0.00000000
Si      -0.01164735       2.71721014       2.70524599       0.00000000
Si      -2.71503801       2.71305945      -0.00003437       0.00000000
Si       0.00102627       2.71390978      -2.71466247       0.00000000
Si      -2.71440270      -0.00105885      -2.71521234       0.00000000
Si       2.71523349       2.71466238       0.00003437       0.00000000
Si       0.00017919      -2.71585251      -2.71452500       0.00000000
