10
Lattice="16.28999089631971 0.0 0.0 0.0 16.28999089631971 0.0 0.0 0.0 34.36671206372826" Properties=species:S:1:pos:R:3:initial_magmoms:R:1 pbc="T T T"
Si      -1.19949786       1.26177453       1.60358605       0.00000000
Si       1.04770764      -2.09443788       0.38769110       0.00000000
Si       1.34343630       1.39521913      -1.40020373       0.00000000
Si      -1.65843603      -0.23537421      -1.74651728       0.00000000
Si       1.98651663      -2.03973606      -1.82270833       0.00000000
Si      -1.23308784       3.27481847       0.30160243       0.00000000
Si      -0.18158463      -1.78896780      -3.03465110       0.00000000
Si       3.47286510       0.73941939      -0.70960427       0.00000000
Si       3.33943371       0.42357258       1.63135437       0.00000000
Si       0.93931398       3.61786958      -0.60461390       0.00000000
