10
Lattice="16.28999089631971 0.0 0.0 0.0 16.28999089631971 0.0 0.0 0.0 34.36671206372826" Properties=species:S:1:pos:R:3:initial_magmoms:R:1 pbc="T T T"
Si      -1.32755355       1.73381216      -0.85483807       0.00000000
Si       0.17904339       0.26438670       2.34889735       0.00000000
Si      -0.72868428      -2.29078125      -0.11591898       0.00000000
Si       2.22079941       0.57945159      -0.77273595       0.00000000
Si      -1.64390535       0.82843351      -3.03757228       0.00000000
Si       1.77538194       1.96757203       2.52959762       0.00000000
Si       0.80550792      -3.25246140       1.51464495       0.00000000
Si       1.55541807      -1.57998339       2.95244588       0.00000000
Si       3.42322947       0.94313466       1.17413937       0.00000000
Si      -0.58598388      -1.27809711      -3.60558561       0.00000000
