10
Lattice="16.28999089631971 0.0 0.0 0.0 16.28999089631971 0.0 0.0 0.0 34.36671206372826" Properties=species:S:1:pos:R:3:initial_magmoms:R:1 pbc="T T T"
Si      -1.46883672       1.18813721      -1.34772573       0.00000000
Si       1.27301463      -1.53062047      -1.30593579       0.00000000
Si      -1.18183950      -1.69712056       1.28943976       0.00000000
Si       0.88941771       1.83968997       1.42621935       0.00000000
Si      -0.44652519       0.24231375       2.68259831       0.00000000
Si      -2.68348428       2.52606912       0.14547437       0.00000000
Si      -0.09775629       2.54354829      -2.69517653       0.00000000
Si       2.69894349       2.56664751       0.09138114       0.00000000
Si       2.61646722      -0.17630823      -2.69246156       0.00000000
Si      -0.82116261       3.44296806       1.45969254       0.00000000
