10
Lattice="16.28999089631971 0.0 0.0 0.0 16.28999089631971 0.0 0.0 0.0 34.36671206372826" Properties=species:S:1:pos:R:3:initial_magmoms:R:1 pbc="T T T"
Si      -0.46855416      -2.11133454      -0.77108635       0.00000000
Si       0.87420285       0.11939267       2.16293897       0.00000000
Si       2.01289014       0.60055528      -1.03790965       0.00000000
Si      -1.92652775       1.32042179      -0.34194898       0.00000000
Si      -0.93787069       2.56214333      -2.09681737       0.00000000
Si      -1.88220266       2.38964852       1.83081887       0.00000000
Si       1.03933458       1.53882182      -3.02887749       0.00000000
Si      -1.10781448       0.60164020       3.34697596       0.00000000
Si      -3.56574158      -0.38161703      -0.85504427       0.00000000
Si      -2.70636263      -2.50012797      -0.17585456       0.00000000
