10
Lattice="16.28999089631971 0.0 0.0 0.0 16.28999089631971 0.0 0.0 0.0 34.36671206372826" Properties=species:S:1:pos:R:3:initial_magmoms:R:1 pbc="T T T"
Si       1.69254729      -0.26163369       1.61025319       0.00000000
Si      -2.19875904      -0.28031832       0.90405123       0.00000000
Si       0.72389502      -1.95280773      -1.23706486       0.00000000
Si       0.48143466       1.88343351      -1.47409220       0.00000000
Si       2.09645784      -0.65673135      -2.85927767       0.00000000
Si      -3.48620661      -0.68587416      -1.10272531       0.00000000
Si       2.69746110       2.44169181      -0.81029879       0.00000000
Si       3.53647755      -1.20909267       0.44109700       0.00000000
Si      -0.95265549      -3.56432435      -1.20771567       0.00000000
Si      -2.26150812      -2.16844824       2.31154071       0.00000000
