10
Lattice="16.28999089631971 0.0 0.0 0.0 16.28999089631971 0.0 0.0 0.0 34.36671206372826" Properties=species:S:1:pos:R:3:initial_magmoms:R:1 pbc="T T T"
Si      -2.17240182      -0.34305111       0.90621634       0.00000000
Si       0.40412232      -2.22265044      -0.79558983       0.00000000
Si       1.28744757       0.40555584       2.00677654       0.00000000
Si      -0.74246562       1.89063369      -1.55083312       0.00000000
Si      -0.72969426      -1.86285435      -2.82363937       0.00000000
Si      -2.91390633       1.84751406       1.33356664       0.00000000
Si       3.48620661       0.68587416       1.10272531       0.00000000
Si      -0.93931398      -3.61786958       0.60461390       0.00000000
Si       2.53355112      -2.87845019      -0.10499036       0.00000000
Si      -2.13881184      -2.35609505       2.20819995       0.00000000
