10
Lattice="16.28999089631971 0.0 0.0 0.0 16.28999089631971 0.0 0.0 0.0 34.36671206372826" Properties=species:S:1:pos:R:3:initial_magmoms:R:1 pbc="T T T"
Si       1.22974839       0.70811001       1.85848409       0.00000000
Si      -2.16108027      -0.50983790       0.74080926       0.00000000
Si       0.06274908       1.88812992      -1.40748948       0.00000000
Si       1.17542124      -1.71172292      -1.17829775       0.00000000
Si       3.37774779       0.29522041       0.92494621       0.00000000
Si      -0.54496566       3.47938599       0.30067453       0.00000000
Si      -1.75601313      -2.34649535       2.13173397       0.00000000
Si      -3.36351033      -0.87352097      -1.20606607       0.00000000
Si       0.42454998       2.86877163       2.40687402       0.00000000
Si       3.41501931      -1.56853382      -0.52608592       0.00000000
