10
Lattice="16.28999089631971 0.0 0.0 0.0 16.28999089631971 0.0 0.0 0.0 34.36671206372826" Properties=species:S:1:pos:R:3:initial_magmoms:R:1 pbc="T T T"
Si      -1.11635370       1.50223122      -1.41367549       0.00000000
Si      -1.02607452      -1.93752350      -0.90930934       0.00000000
Si       2.28379284      -0.30947188      -0.62918612       0.00000000
Si      -0.72301536      -0.56774627       2.36089134       0.00000000
Si      -0.04499298      -1.65155255      -3.06221322       0.00000000
Si      -3.18666609       1.66892679      -0.24616890       0.00000000
Si       0.49223493      -2.56402061       2.53616167       0.00000000
Si      -1.47763332       0.16142250      -3.37684065       0.00000000
Si      -0.53828676      -3.61710395       0.63922120       0.00000000
Si       2.16145494      -0.80365805      -2.97385636       0.00000000
