10
Lattice="16.28999089631971 0.0 0.0 0.0 16.28999089631971 0.0 0.0 0.0 34.36671206372826" Properties=species:S:1:pos:R:3:initial_magmoms:R:1 pbc="T T T"
Si       1.73622078      -0.61142886       1.47505447       0.00000000
Si      -1.87357806      -1.06258041       0.98161695       0.00000000
Si       0.26033049       2.31563979      -0.49333443       0.00000000
Si       0.76053123      -0.72242892      -2.18197814       0.00000000
Si       3.49571997       0.51414498       0.32163824       0.00000000
Si       2.46365073       2.65685013       0.41752142       0.00000000
Si       1.05863823      -2.79176391       2.09808894       0.00000000
Si       3.13976718      -0.16661412      -1.91993181       0.00000000
Si      -3.38470362       0.65348964       1.54523134       0.00000000
Si      -2.90524005       0.13986594      -2.54547505       0.00000000
