10
Lattice="16.28999089631971 0.0 0.0 0.0 16.28999089631971 0.0 0.0 0.0 34.36671206372826" Properties=species:S:1:pos:R:3:initial_magmoms:R:1 pbc="T T T"
Si      -1.35896067       1.35493704      -1.36377500       0.00000000
Si       1.35562122      -1.36119240      -1.36573390       0.00000000
Si       1.35928647       1.35984033       1.38088963       0.00000000
Si      -1.37360538      -1.37494116       1.36253779       0.00000000
Si       2.70917361      -2.71204065      -0.00529248       0.00000000
Si       2.71122615       2.71409319      -0.00811055       0.00000000
Si      -2.71648782       2.71287144       0.00127157       0.00000000
Si      -2.71555929      -2.71466334      -0.00766378       0.00000000
Si      -0.00127062       2.71340901      -2.72071101       0.00000000
Si       2.71296918      -0.00114030      -2.72153582       0.00000000
