10
Lattice="16.28999089631971 0.0 0.0 0.0 16.28999089631971 0.0 0.0 0.0 34.36671206372826" Properties=species:S:1:pos:R:3:initial_magmoms:R:1 pbc="T T T"
Si       1.35016407       1.34654769      -1.36862071       0.00000000
Si      -1.35503478       1.35330804       1.35844815       0.00000000
Si      -1.34978940      -1.36317978      -1.35538608       0.00000000
Si       1.35899325      -1.36013355       1.35738278       0.00000000
Si       2.42825256      -0.26179659      -2.77482831       0.00000000
Si       0.00254124       2.71231758       2.71565910       0.00000000
Si      -2.71384884      -0.00272043       2.71555600       0.00000000
Si       2.71749780       2.71303434      -0.00491444       0.00000000
Si      -2.71581993      -2.71500543       0.00178707       0.00000000
Si      -0.06647949       2.74183506      -2.68882556       0.00000000
