10
Lattice="16.28999089631971 0.0 0.0 0.0 16.28999089631971 0.0 0.0 0.0 34.36671206372826" Properties=species:S:1:pos:R:3:initial_magmoms:R:1 pbc="T T T"
Si      -1.35788553      -1.35720135      -1.35697038       0.00000000
Si       1.35769005       1.35847197      -1.35693602       0.00000000
Si       1.35896067      -1.35493704       1.36377500       0.00000000
Si      -1.35752715       1.35793440       1.36504657       0.00000000
Si      -0.00037467      -2.71441899      -2.71517797       0.00000000
Si       2.71502172       0.00112401      -2.71514360       0.00000000
Si       2.71458189      -2.71612944      -0.00195890       0.00000000
Si      -2.71578735       0.00087966      -2.71500614       0.00000000
Si       0.00060273       2.71591767      -2.71490304       0.00000000
Si      -2.71596654       2.71673217      -0.00048113       0.00000000
