10
Lattice="16.28999089631971 0.0 0.0 0.0 16.28999089631971 0.0 0.0 0.0 34.36671206372826" Properties=species:S:1:pos:R:3:initial_magmoms:R:1 pbc="T T T"
Si      -0.72036009       1.75728375       1.39398335       0.00000000
Si      -2.20670856      -1.02187170       0.28087929       0.00000000
Si       1.45880208      -1.40079339       1.49539958       0.00000000
Si       0.88979238       0.43520364      -2.32291610       0.00000000
Si      -1.73094282      -3.13670466      -0.41948032       0.00000000
Si       0.95619042       3.36880036       1.36463417       0.00000000
Si      -2.84978889       2.41308349       0.70338389       0.00000000
Si      -0.87658119      -0.41358681      -3.71985499       0.00000000
Si       2.90377395      -1.16447436      -2.30593893       0.00000000
Si       3.51210771      -0.15863202       1.75352810       0.00000000
