10
Lattice="16.28999089631971 0.0 0.0 0.0 16.28999089631971 0.0 0.0 0.0 34.36671206372826" Properties=species:S:1:pos:R:3:initial_magmoms:R:1 pbc="T T T"
Si       0.62073045       2.19105387      -0.35799824       0.00000000
Si      -1.67099562      -0.32695659      -1.60166151       0.00000000
Si      -0.49278879       0.13535361       2.29827515       0.00000000
Si       1.69495821      -1.49481927      -0.72654707       0.00000000
Si       0.30535605      -3.45921408      -0.55959349       0.00000000
Si       1.70368965       0.40786902       3.25710696       0.00000000
Si       2.86032852       2.33424297       0.29421359       0.00000000
Si       0.75416184       2.50690068      -2.69895687       0.00000000
Si      -1.36109466      -1.90353537       2.94498830       0.00000000
Si      -3.13481502      -1.97627022      -0.68740336       0.00000000
