10
Lattice="16.28999089631971 0.0 0.0 0.0 16.28999089631971 0.0 0.0 0.0 34.36671206372826" Properties=species:S:1:pos:R:3:initial_magmoms:R:1 pbc="T T T"
Si      -1.67655051      -1.61151661       0.02934919       0.00000000
Si       1.72871109      -1.28915380       1.10097260       0.00000000
Si      -0.72389502       1.95280773       1.23706486       0.00000000
Si       1.37256282       1.29607638      -1.62221282       0.00000000
Si       2.81258253       0.74371506       1.67816185       0.00000000
Si       0.96865227       1.69117404       2.84731805       0.00000000
Si       0.42961617      -1.78417432       3.02251965       0.00000000
Si      -1.80998190      -1.92736342       2.37030782       0.00000000
Si      -0.95619042      -3.36880036      -1.36463417       0.00000000
Si      -0.24246036       3.83624124      -0.23702735       0.00000000
