10
Lattice="16.28999089631971 0.0 0.0 0.0 16.28999089631971 0.0 0.0 0.0 34.36671206372826" Properties=species:S:1:pos:R:3:initial_magmoms:R:1 pbc="T T T"
Si      -1.35755738       1.35731538       1.35693602       0.00000000
Si       1.35710198      -1.35782037       1.35690165       0.00000000
Si       1.35684134       1.35822762      -1.35714222       0.00000000
Si      -1.35809546      -1.35795069      -1.35669545       0.00000000
Si      -0.00129668      -2.71151937      -2.71088213       0.00000000
Si       0.00027530       2.71474479       2.71414697       0.00000000
Si      -0.00179027      -2.71471221       2.71421570       0.00000000
Si       2.71456397      -0.00030951       2.71486867       0.00000000
Si       2.71523186      -2.71448415       0.00027493       0.00000000
Si       0.00066789       2.71349046      -2.71631207       0.00000000
