10
Lattice="16.28999089631971 0.0 0.0 0.0 16.28999089631971 0.0 0.0 0.0 34.36671206372826" Properties=species:S:1:pos:R:3:initial_magmoms:R:1 pbc="T T T"
Si       1.59003432      -1.63888803      -0.43669805       0.00000000
Si      -0.14217912       0.21970323       2.34573561       0.00000000
Si      -2.20809321      -0.25013295      -0.89975539       0.00000000
Si       1.40831937       1.92368610      -0.53835485       0.00000000
Si      -1.14525216       2.33305380       2.19630906       0.00000000
Si       0.85875993      -2.42528778      -2.54581872       0.00000000
Si      -0.06571386       3.58365339       0.54017628       0.00000000
Si       0.85074525      -3.38294430       1.01859555       0.00000000
Si       1.67216850       1.57980420      -2.90120509       0.00000000
Si      -3.24016245       1.89257220      -0.80387221       0.00000000
