10
Lattice="16.28999089631971 0.0 0.0 0.0 16.28999089631971 0.0 0.0 0.0 34.36671206372826" Properties=species:S:1:pos:R:3:initial_magmoms:R:1 pbc="T T T"
Si      -1.00307304       2.11335057      -0.14942655       0.00000000
Si       0.14217912      -0.21970323      -2.34573561       0.00000000
Si      -1.78872345      -1.06183107       1.18087525       0.00000000
Si       2.09592027       0.02818170       1.20317926       0.00000000
Si       1.55049849       1.70398287      -2.88409045       0.00000000
Si      -3.73884822      -0.44989722      -0.06660273       0.00000000
Si       1.73221344      -1.85859126      -2.78243366       0.00000000
Si       1.68016689      -1.32273171       3.10688997       0.00000000
Si      -3.27707559       1.74845457      -0.75094744       0.00000000
Si      -1.97905581       0.11521917       3.24181376       0.00000000
