10
Lattice="16.28999089631971 0.0 0.0 0.0 16.28999089631971 0.0 0.0 0.0 34.36671206372826" Properties=species:S:1:pos:R:3:initial_magmoms:R:1 pbc="T T T"
Si       1.35592724       1.35496962      -1.35721095       0.00000000
Si       1.35752202      -1.35775521       1.35714222       0.00000000
Si      -1.35786924       1.35795069       1.35738278       0.00000000
Si      -1.35904212      -1.35990549      -1.35666108       0.00000000
Si      -2.70962973      -0.00130320      -2.71782421       0.00000000
Si      -2.71521720      -0.00210141       2.71318470       0.00000000
Si      -0.00148239       2.71393029       2.71510924       0.00000000
Si       2.71423558       2.71526607      -0.00024057       0.00000000
Si       2.71535471      -0.00032580       2.71435317       0.00000000
Si      -2.71477737       2.71515204       0.00000000       0.00000000
