10
Lattice="16.28999089631971 0.0 0.0 0.0 16.28999089631971 0.0 0.0 0.0 34.36671206372826" Properties=species:S:1:pos:R:3:initial_magmoms:R:1 pbc="T T T"
Si       1.17652896      -1.47427758       1.34336116       0.00000000
Si      -1.33427587      -1.36285398      -1.36140369       0.00000000
Si       1.37958381       1.35184194      -1.35483965       0.00000000
Si      -1.54351727       1.09287981       1.48598309       0.00000000
Si       2.16472923       0.30468816       2.45357841       0.00000000
Si       0.46498176       2.05887681       2.60238636       0.00000000
Si      -0.45385406      -2.47762755       2.61341808       0.00000000
Si      -2.69627912       2.70842427       0.04007161       0.00000000
Si      -2.69248355      -0.00847080      -2.71380330       0.00000000
Si       0.02267568       2.70793557      -2.71517797       0.00000000
