10
Lattice="16.28999089631971 0.0 0.0 0.0 16.28999089631971 0.0 0.0 0.0 34.36671206372826" Properties=species:S:1:pos:R:3:initial_magmoms:R:1 pbc="T T T"
Si      -1.96517673       0.93327039      -0.78634518       0.00000000
Si      -0.26384913       0.34388190       2.36285024       0.00000000
Si       0.09198963      -2.25662112      -1.03165491       0.00000000
Si       2.08958250       1.43646849      -0.00553304       0.00000000
Si       3.01810436      -0.54859833       0.91872583       0.00000000
Si       0.90295553       2.72315043       1.70682371       0.00000000
Si       2.44448459      -2.35981827      -0.62169417       0.00000000
Si       1.98617358      -0.31346847       3.06589046       0.00000000
Si      -1.67216850      -1.57980420       2.90120509       0.00000000
Si       0.92782515       3.25197270      -1.76291021       0.00000000
