10
Lattice="16.28999089631971 0.0 0.0 0.0 16.28999089631971 0.0 0.0 0.0 34.36671206372826" Properties=species:S:1:pos:R:3:initial_magmoms:R:1 pbc="T T T"
Si       1.35360126       1.35395217       1.38570097       0.00000000
Si      -1.36314720      -1.35708732       1.38466997       0.00000000
Si      -1.30772862       1.38648492      -1.48438504       0.00000000
Si       1.21357242      -1.53018486      -1.44669505       0.00000000
Si      -2.71925712       2.69873891       0.02395018       0.00000000
Si       2.69586468      -2.72885193       0.01105234       0.00000000
Si       2.70892248       2.72077928       0.01303530       0.00000000
Si      -2.73048093      -2.72357397       0.02096371       0.00000000
Si       2.70877530      -0.00040756       2.74710466       0.00000000
Si      -0.00809613       2.71486601       2.74627986       0.00000000
