10
Lattice="16.28999089631971 0.0 0.0 0.0 16.28999089631971 0.0 0.0 0.0 34.36671206372826" Properties=species:S:1:pos:R:3:initial_magmoms:R:1 pbc="T T T"
Si      -1.34462547      -1.34019459       1.37863517       0.00000000
Si       1.37327211       1.36769211       1.37643570       0.00000000
Si      -1.48229226       1.19866707      -1.45774739       0.00000000
Si       1.30752729      -1.37422440      -1.53171834       0.00000000
Si       2.18048885       0.56301498      -2.60746748       0.00000000
Si       0.03880655       1.58807952      -3.25872361       0.00000000
Si      -2.70275535      -2.71391400      -0.00244691       0.00000000
Si      -2.69586468       2.72885193      -0.01105234       0.00000000
Si      -2.70075168       0.01317861       2.73691149       0.00000000
Si       2.72540564      -2.71293660      -0.02182287       0.00000000
