10
Lattice="16.28999089631971 0.0 0.0 0.0 16.28999089631971 0.0 0.0 0.0 34.36671206372826" Properties=species:S:1:pos:R:3:initial_magmoms:R:1 pbc="T T T"
Si       1.31455413      -1.25864685       1.43567020       0.00000000
Si       1.38437306       1.32418152      -1.36652434       0.00000000
Si      -1.33015995      -1.39005828      -1.36927367       0.00000000
Si      -1.48084245       1.32491984       1.62472159       0.00000000
Si      -0.21826971      -2.19844953       3.02887749       0.00000000
Si      -2.68561827       2.67441305       0.01031002       0.00000000
Si      -2.23225128      -0.59877153       3.01190033       0.00000000
Si       0.02974554       2.68112616      -2.72662209       0.00000000
Si      -2.68260462      -0.03189582      -2.72521306       0.00000000
Si      -2.68209963      -2.74431114       0.01972650       0.00000000
