10
Lattice="16.28999089631971 0.0 0.0 0.0 16.28999089631971 0.0 0.0 0.0 34.36671206372826" Properties=species:S:1:pos:R:3:initial_magmoms:R:1 pbc="T T T"
Si      -0.93647205      -1.67229882      -1.24737488       0.00000000
Si       1.63038302       1.00334997      -1.27005692       0.00000000
Si       1.43304596      -1.67743017       1.19049794       0.00000000
Si      -1.83030435       1.74612510       0.50165118       0.00000000
Si      -2.24794737      -0.25135470      -2.60791940       0.00000000
Si       0.45385406       2.47762755      -2.61341808       0.00000000
Si      -2.23514343      -2.88559268       0.37071393       0.00000000
Si       2.61858329       2.78231571      -0.15983967       0.00000000
Si      -1.08966321       3.57050736      -1.12743499       0.00000000
Si      -0.14916427      -3.63202003       1.53430272       0.00000000
