10
Lattice="16.28999089631971 0.0 0.0 0.0 16.28999089631971 0.0 0.0 0.0 34.36671206372826" Properties=species:S:1:pos:R:3:initial_magmoms:R:1 pbc="T T T"
Si       0.31918626      -2.18753523      -0.84573089       0.00000000
Si      -1.23836580      -0.84364281       1.87099358       0.00000000
Si       2.05330563       1.24216137       0.25812852       0.00000000
Si      -1.45880208       1.40079339      -1.49539958       0.00000000
Si       0.54648063      -1.11695643       3.38199566       0.00000000
Si       3.18731852      -0.39765519       1.64743800       0.00000000
Si       3.21218814       0.13116708      -1.82229593       0.00000000
Si       1.22609943       3.48043995       0.97020719       0.00000000
Si      -2.17916217       3.15807714      -0.10141622       0.00000000
Si       2.28436299      -3.12080562      -0.05938571       0.00000000
