10
Lattice="16.28999089631971 0.0 0.0 0.0 16.28999089631971 0.0 0.0 0.0 34.36671206372826" Properties=species:S:1:pos:R:3:initial_magmoms:R:1 pbc="T T T"
Si      -0.63182394       1.82034234      -1.29352940       0.00000000
Si       2.20496553       0.64918908       0.58145073       0.00000000
Si      -0.01234782      -2.28203352      -0.80328798       0.00000000
Si      -1.78846281      -0.10603161       1.66936397       0.00000000
Si       1.90529469       0.42039603       2.87144350       0.00000000
Si      -1.02102462      -2.10186612       2.63651252       0.00000000
Si      -1.79719425      -2.00871990      -2.31429005       0.00000000
Si      -0.66909546       3.68409657       0.15750273       0.00000000
Si      -1.09188612      -3.53263311       0.85284480       0.00000000
Si       3.71327685      -0.87597846      -0.50601575       0.00000000
