10
Lattice="16.28999089631971 0.0 0.0 0.0 16.28999089631971 0.0 0.0 0.0 34.36671206372826" Properties=species:S:1:pos:R:3:initial_magmoms:R:1 pbc="T T T"
Si      -0.14111375      -2.30547483       0.33603790       0.00000000
Si       1.78059800       0.56918889       1.42381368       0.00000000
Si       0.91610399       0.14079447      -2.15943356       0.00000000
Si      -1.99429089       1.13660217       0.76318200       0.00000000
Si      -0.28968996       2.15505297      -2.62104749       0.00000000
Si      -2.41004427      -0.21431124       2.66689271       0.00000000
Si      -1.93981713      -2.40705927       1.86913778       0.00000000
Si      -0.85213479      -3.15244080      -1.71431566       0.00000000
Si      -1.20338303       3.34748097       1.22122180       0.00000000
Si       0.52586075      -2.01069099      -3.21370177       0.00000000
