10
Lattice="16.28999089631971 0.0 0.0 0.0 16.28999089631971 0.0 0.0 0.0 34.36671206372826" Properties=species:S:1:pos:R:3:initial_magmoms:R:1 pbc="T T T"
Si      -1.70341176      -0.25673040      -1.57801720       0.00000000
Si       1.78439845       1.32888933      -0.73816302       0.00000000
Si      -0.37185672       0.77524110       2.22284018       0.00000000
Si       1.05131587      -2.18520576       0.14547437       0.00000000
Si       3.08732152       0.26399574       0.93357225       0.00000000
Si       1.76887408      -0.27583857       2.87797318       0.00000000
Si      -2.67426318       1.67029515       1.48137795       0.00000000
Si      -3.56449539       0.26896419      -0.21207710       0.00000000
Si      -1.23318462      -2.44947843      -2.37577213       0.00000000
Si       3.33642820      -1.71203013      -0.29768463       0.00000000
