10
Lattice="16.28999089631971 0.0 0.0 0.0 16.28999089631971 0.0 0.0 0.0 34.36671206372826" Properties=species:S:1:pos:R:3:initial_magmoms:R:1 pbc="T T T"
Si      -1.35592724      -1.35496962       1.35721095       0.00000000
Si       1.35982006      -1.35654975      -1.35889492       0.00000000
Si       1.35830834       1.36029645       1.35697038       0.00000000
Si      -1.35578063       1.36373364      -1.35810449       0.00000000
Si       0.00159478      -2.71272483       2.71435317       0.00000000
Si       2.71599351      -2.71181259       0.00027493       0.00000000
Si      -2.71379648       0.00298107       2.71459374       0.00000000
Si      -2.71190684       2.71710684       0.00017183       0.00000000
Si      -2.71496936      -2.71487511       0.00054987       0.00000000
Si       2.71560255       2.71510317       0.00030930       0.00000000
