10
Lattice="16.28999089631971 0.0 0.0 0.0 16.28999089631971 0.0 0.0 0.0 34.36671206372826" Properties=species:S:1:pos:R:3:initial_magmoms:R:1 pbc="T T T"
Si       1.35668007       1.35091341      -1.35628305       0.00000000
Si       1.24524018      -1.46948832       1.34415159       0.00000000
Si      -1.36155078      -1.36251189      -1.35305258       0.00000000
Si      -1.44920727       1.24629903       1.39573606       0.00000000
Si      -0.57640536      -2.40966567       2.45536548       0.00000000
Si      -2.27615283      -0.65547702       2.60417343       0.00000000
Si       2.70352098       2.70055620       0.04563902       0.00000000
Si      -0.00366525       2.70720252      -2.71253173       0.00000000
Si       2.70923877      -0.00786807      -2.71335653       0.00000000
Si      -2.71845891      -0.00641826      -2.71339090       0.00000000
