10
Lattice="16.28999089631971 0.0 0.0 0.0 16.28999089631971 0.0 0.0 0.0 34.36671206372826" Properties=species:S:1:pos:R:3:initial_magmoms:R:1 pbc="T T T"
Si       1.35638685       1.35695619       1.35693602       0.00000000
Si       1.35702216      -1.35716210      -1.35824195       0.00000000
Si      -1.35758579       1.35726733      -1.35796702       0.00000000
Si      -1.35830092      -1.35753677       1.35717658       0.00000000
Si       2.71453302      -2.71470554       0.00027493       0.00000000
Si       2.71445157       0.00096025      -2.71521234       0.00000000
Si      -2.71520561      -2.71477070      -0.00006873       0.00000000
Si       2.71551042      -0.00298372       2.71490304       0.00000000
Si      -2.71492219       2.71552427      -0.00030930       0.00000000
Si       2.71549413       2.71498670       0.00010310       0.00000000
