10
Lattice="16.28999089631971 0.0 0.0 0.0 16.28999089631971 0.0 0.0 0.0 34.36671206372826" Properties=species:S:1:pos:R:3:initial_magmoms:R:1 pbc="T T T"
Si       1.35348560      -1.35651717       1.36061326       0.00000000
Si      -1.36036149       1.36075226       1.35961662       0.00000000
Si       1.34657864       1.37418557      -1.36664806       0.00000000
Si      -1.37327211      -1.36769211      -1.37643570       0.00000000
Si       2.71189241      -2.70904329       0.00158087       0.00000000
Si      -2.71789758      -2.70788670       0.00219947       0.00000000
Si      -0.00380860      -2.71132389       2.71727434       0.00000000
Si       2.71177838       0.00311139       2.71696504       0.00000000
Si       2.71352141       2.71527977      -0.00158087       0.00000000
Si      -2.71553553       2.71511199      -0.00178707       0.00000000
