10
Lattice="16.28999089631971 0.0 0.0 0.0 16.28999089631971 0.0 0.0 0.0 34.36671206372826" Properties=species:S:1:pos:R:3:initial_magmoms:R:1 pbc="T T T"
Si       2.25868523       0.90761364      -0.76575951       0.00000000
Si      -1.15888251       1.11099429       2.08042444       0.00000000
Si      -1.76721627       0.10515195      -1.97904259       0.00000000
Si       1.16175735      -1.81550421       1.75737717       0.00000000
Si       1.18347192       2.39500467      -2.20503821       0.00000000
Si      -0.02486962      -0.52882227       3.46973392       0.00000000
Si      -3.21218814      -0.13116708       1.82229593       0.00000000
Si      -0.23439243       1.04495463      -3.57224988       0.00000000
Si      -0.92782515      -3.25197270       1.76291021       0.00000000
Si      -2.89300188      -2.31870231       0.97656504       0.00000000
