10
Lattice="16.28999089631971 0.0 0.0 0.0 16.28999089631971 0.0 0.0 0.0 34.51530692428229" Properties=species:S:1:pos:R:3:initial_magmoms:R:1 pbc="T T T"
Si      -1.32004549      -1.73977200       0.67494720       0.00000000
Si      -0.87141889       1.79279988       1.30895923       0.00000000
Si       2.21578209      -0.63446292       0.72354478       0.00000000
Si      -0.55194592       0.26428896      -2.34258971       0.00000000
Si      -0.65125302      -3.49138683      -0.68833915       0.00000000
Si       3.46172274       1.17173970      -0.16470714       0.00000000
Si       0.39105774       3.61545866       0.62831700       0.00000000
Si       0.87824277       1.94698962      -3.01674306       0.00000000
Si      -0.98345825      -2.24406153       2.98177903       0.00000000
Si      -3.59307620      -1.55235555       0.24719877       0.00000000
