10
Lattice="16.28999089631971 0.0 0.0 0.0 16.28999089631971 0.0 0.0 0.0 34.51530692428229" Properties=species:S:1:pos:R:3:initial_magmoms:R:1 pbc="T T T"
Si      -1.22917824      -1.53544068      -1.35748778       0.00000000
Si       1.51448130       1.18367701      -1.49213207       0.00000000
Si       0.20965230      -0.51221299       2.43222601       0.00000000
Si      -1.48115196       2.08203793      -0.43264961       0.00000000
Si      -0.80770707       1.77024733       1.83901110       0.00000000
Si       2.36672523       0.85484707       2.26530989       0.00000000
Si      -2.40726941      -0.05796634      -2.84848084       0.00000000
Si      -1.97330544       0.22221678       3.22583690       0.00000000
Si      -3.01470396      -2.34663381       0.08787602       0.00000000
Si       3.25332477       2.00731570      -0.05429261       0.00000000
