10
Lattice="16.28999089631971 0.0 0.0 0.0 16.28999089631971 0.0 0.0 0.0 34.51530692428229" Properties=species:S:1:pos:R:3:initial_magmoms:R:1 pbc="T T T"
Si       0.86670945       2.03510970      -0.67273822       0.00000000
Si      -1.57949469       0.61760277       1.58663503       0.00000000
Si      -1.51184232      -0.09119142      -1.79403763       0.00000000
Si       1.39937616      -1.40800986       1.42002955       0.00000000
Si       1.57389093       2.49852762       1.56254333       0.00000000
Si       0.04429251       1.37946978       3.08090705       0.00000000
Si      -0.84997962      -2.20965053      -2.49877156       0.00000000
Si      -2.77553907      -1.35426915       2.11133702       0.00000000
Si       1.37784078      -3.07399745      -1.84636286       0.00000000
Si       1.11035898      -0.59551353       3.63439482       0.00000000
