10
Lattice="16.28999089631971 0.0 0.0 0.0 16.28999089631971 0.0 0.0 0.0 34.51530692428229" Properties=species:S:1:pos:R:3:initial_magmoms:R:1 pbc="T T T"
Si      -2.21641740       0.26492753      -0.66076141       0.00000000
Si       1.18348479       1.45502443      -1.40898465       0.00000000
Si       0.75015450      -2.05723708      -1.06745549       0.00000000
Si      -1.91402613       2.17023688       0.84690256       0.00000000
Si       0.98710884       1.06544908       2.88613706       0.00000000
Si       0.33350517      -1.41164809      -3.33625143       0.00000000
Si       3.53201409      -0.25564386       0.94706604       0.00000000
Si       3.04838028      -1.99372237      -0.51617670       0.00000000
Si       3.15468882       1.92396466      -0.19777282       0.00000000
Si      -0.60447303      -3.79586878      -0.21730849       0.00000000
