10
Lattice="16.28999089631971 0.0 0.0 0.0 16.28999089631971 0.0 0.0 0.0 34.51530692428229" Properties=species:S:1:pos:R:3:initial_magmoms:R:1 pbc="T T T"
Si      -1.34762283      -1.34941473       1.38727105       0.00000000
Si       1.37075463       1.36070370       1.38485498       0.00000000
Si       1.29973023      -1.51601256      -1.37005826       0.00000000
Si      -1.47706317       1.35250983      -1.52191534       0.00000000
Si       2.41763148       0.19117944      -2.64621792       0.00000000
Si      -2.70471015       2.70980892       0.01317105       0.00000000
Si      -2.71375110      -2.70953199       0.00425919       0.00000000
Si       2.73750192      -2.70687672       0.04297848       0.00000000
Si       2.73271266       2.71917567       0.02082655       0.00000000
Si      -2.70414000       0.00379557       2.74779618       0.00000000
