10
Lattice="16.28999089631971 0.0 0.0 0.0 16.28999089631971 0.0 0.0 0.0 34.51530692428229" Properties=species:S:1:pos:R:3:initial_magmoms:R:1 pbc="T T T"
Si      -1.35654975      -1.35739683      -1.35752230       0.00000000
Si       1.35834165       1.35790182      -1.35714263       0.00000000
Si      -1.35597960       1.35892809       1.35935161       0.00000000
Si       1.36120869      -1.35736425       1.36156059       0.00000000
Si      -2.71296918      -2.71414369      -0.00110449       0.00000000
Si       2.71376739      -2.71486534       0.00013806       0.00000000
Si      -2.71520091       2.71401174       0.00117352       0.00000000
Si       0.00065160      -2.71492072      -2.71438880       0.00000000
Si      -2.71495656       0.00058644      -2.71435428       0.00000000
Si       0.00065160       2.71518462      -2.71483750       0.00000000
