10
Lattice="16.28999089631971 0.0 0.0 0.0 16.28999089631971 0.0 0.0 0.0 34.51530692428229" Properties=species:S:1:pos:R:3:initial_magmoms:R:1 pbc="T T T"
Si      -1.46489454       1.27221642       1.32242021       0.00000000
Si       1.33864704       1.37062431      -1.36918848       0.00000000
Si      -1.37626065      -1.34697123      -1.36946460       0.00000000
Si       1.28762676      -1.30277646       1.61904492       0.00000000
Si      -0.78900615      -1.84678101       2.67303944       0.00000000
Si       2.68048692      -2.69855253       0.02474749       0.00000000
Si       2.69526195       2.72574054       0.01608414       0.00000000
Si       2.69436600       0.01167993      -2.72805687       0.00000000
Si      -0.02011815      -2.70340695      -2.72722850       0.00000000
Si      -2.73499163      -2.70686043       0.01673993       0.00000000
