10
Lattice="16.28999089631971 0.0 0.0 0.0 16.28999089631971 0.0 0.0 0.0 34.51530692428229" Properties=species:S:1:pos:R:3:initial_magmoms:R:1 pbc="T T T"
Si       1.35571896      -1.35894438      -1.35886839       0.00000000
Si      -1.35847197       1.35762489      -1.35917903       0.00000000
Si      -1.33864704      -1.37062431       1.36918848       0.00000000
Si       1.35661491       1.35511623       1.38527262       0.00000000
Si       2.71274112       2.71497285       0.00586761       0.00000000
Si       2.71456560       0.00006516      -2.71628714       0.00000000
Si      -0.00034209       2.71445157      -2.71642520       0.00000000
Si      -0.00048870      -2.71507059      -2.71601102       0.00000000
Si      -2.71585251       2.71583622       0.00310638       0.00000000
Si      -2.71521720      -0.00016290      -2.71652875       0.00000000
