10
Lattice="16.28999089631971 0.0 0.0 0.0 16.28999089631971 0.0 0.0 0.0 34.51530692428229" Properties=species:S:1:pos:R:3:initial_magmoms:R:1 pbc="T T T"
Si       0.71776998      -1.58371380       1.56316461       0.00000000
Si      -0.53776548       2.09546415       0.89594884       0.00000000
Si      -2.08772640      -0.77884119      -0.78788135       0.00000000
Si       1.93319946       0.27033255      -1.37522866       0.00000000
Si      -1.87771572       0.22563279      -2.99113268       0.00000000
Si       1.44572121       2.51393796       2.13901831       0.00000000
Si      -1.60492338      -3.03805242      -1.13065306       0.00000000
Si      -0.59746833      -3.45734073       1.02127399       0.00000000
Si       0.18801918      -0.76598838       3.65665721       0.00000000
Si      -1.25102313       3.47558553      -0.96535916       0.00000000
