10
Lattice="16.28999089631971 0.0 0.0 0.0 16.28999089631971 0.0 0.0 0.0 34.51530692428229" Properties=species:S:1:pos:R:3:initial_magmoms:R:1 pbc="T T T"
Si       0.48280302      -2.25921123      -0.34277170       0.00000000
Si       2.08772640       0.77884119       0.78788135       0.00000000
Si      -1.92518478       0.26893161       1.39476433       0.00000000
Si       0.21001068       1.00447398      -2.20325133       0.00000000
Si      -2.34204588       1.18563507      -2.39187759       0.00000000
Si       1.49025807      -2.67849954       1.80915534       0.00000000
Si       1.54996092       2.87430534       1.68383019       0.00000000
Si       2.80549638      -0.80487261       2.35104596       0.00000000
Si      -1.53665199      -0.87133581       3.43275628       0.00000000
Si      -3.55902291      -1.23370686       1.04964559       0.00000000
