10
Lattice="16.28999089631971 0.0 0.0 0.0 16.28999089631971 0.0 0.0 0.0 34.51530692428229" Properties=species:S:1:pos:R:3:initial_magmoms:R:1 pbc="T T T"
Si      -0.05932818      -0.22975416      -2.31352780       0.00000000
Si      -1.62538362      -1.66004874       0.18493312       0.00000000
Si       1.83992292      -1.18283319       0.84493519       0.00000000
Si      -0.61543620       2.24979561       0.70784031       0.00000000
Si      -1.44671490      -2.05614009       2.48948693       0.00000000
Si      -3.48247131      -0.60712830      -0.70404362       0.00000000
Si      -2.36312514      -0.35137530      -2.75808520       0.00000000
Si       1.00149291       1.67677857      -3.10741482       0.00000000
Si      -0.34323030       2.04366195       3.10958928       0.00000000
Si       3.63438045      -0.78561783      -0.55611094       0.00000000
