10
Lattice="16.28999089631971 0.0 0.0 0.0 16.28999089631971 0.0 0.0 0.0 34.51530692428229" Properties=species:S:1:pos:R:3:initial_magmoms:R:1 pbc="T T T"
Si       0.79733034       1.90751732       1.14221569       0.00000000
Si      -1.32763500      -1.38818493       1.37802440       0.00000000
Si       1.37147139      -1.23186609      -1.56268139       0.00000000
Si      -1.34237745       1.45009086      -1.56036887       0.00000000
Si       2.76358221      -2.63881710      -0.22562669       0.00000000
Si      -2.78058897      -2.63476089      -0.13416107       0.00000000
Si       0.31726404       1.60485400       3.50185597       0.00000000
Si      -1.10322396       3.53066921       1.21811489       0.00000000
Si       0.01744659      -2.59744050      -2.93300888       0.00000000
Si      -2.84206743       2.70703052      -0.21972457       0.00000000
