10
Lattice="16.28999089631971 0.0 0.0 0.0 16.28999089631971 0.0 0.0 0.0 34.51530692428229" Properties=species:S:1:pos:R:3:initial_magmoms:R:1 pbc="T T T"
Si       0.53776548      -2.09546415      -0.89594884       0.00000000
Si       1.98348669       0.41847381       1.24306947       0.00000000
Si      -1.61271000      -0.23946300       1.73715637       0.00000000
Si      -0.71325765       1.38012138      -1.86130800       0.00000000
Si      -1.54996092      -2.87430534      -1.68383019       0.00000000
Si       1.99976040       2.67162516       1.68445147       0.00000000
Si       0.96462864       2.99599164      -2.04724206       0.00000000
Si       1.82156409      -0.85444308       3.21482651       0.00000000
Si       2.47096494      -1.82513160      -2.27117750       0.00000000
Si      -0.09785403       0.34878519      -3.87375861       0.00000000
