10
Lattice="16.28999089631971 0.0 0.0 0.0 16.28999089631971 0.0 0.0 0.0 34.51530692428229" Properties=species:S:1:pos:R:3:initial_magmoms:R:1 pbc="T T T"
Si       1.67788629       1.61587026      -0.18593406       0.00000000
Si       0.61540362      -1.03133619      -2.01245061       0.00000000
Si      -2.26134522       0.79964352       0.00572954       0.00000000
Si       0.71325765      -1.38012138       1.86130800       0.00000000
Si       1.67847273       2.57267874       1.91418548       0.00000000
Si      -2.41083855       1.45823193       2.31421811       0.00000000
Si       0.03934035       0.51732153      -3.74391195       0.00000000
Si       1.25102313      -3.47558553       0.96535916       0.00000000
Si      -0.62669259      -3.24995274      -2.02577353       0.00000000
Si       3.04248330      -1.43176068      -2.01193288       0.00000000
