10
Lattice="16.28999089631971 0.0 0.0 0.0 16.28999089631971 0.0 0.0 0.0 34.51530692428229" Properties=species:S:1:pos:R:3:initial_magmoms:R:1 pbc="T T T"
Si      -1.06082109      -1.90653273       0.79388702       0.00000000
Si      -0.07674219      -1.03136877      -2.10757485       0.00000000
Si       1.99264167      -0.77895522       1.01136809       0.00000000
Si      -0.74989386       2.20511214       0.58344707       0.00000000
Si      -0.00938304      -3.15105615      -0.97781919       0.00000000
Si      -2.17753317      -0.06068025      -2.49852995       0.00000000
Si       0.77408451       3.48508001      -0.61437281       0.00000000
Si       2.93868342       1.11410568       1.88225880       0.00000000
Si      -1.00149291      -1.67677857       3.10741482       0.00000000
Si      -0.37098846       2.37921966       2.92700321       0.00000000
