10
Lattice="16.28999089631971 0.0 0.0 0.0 16.28999089631971 0.0 0.0 0.0 34.51530692428229" Properties=species:S:1:pos:R:3:initial_magmoms:R:1 pbc="T T T"
Si       1.35462753       1.73863170      -0.85014700       0.00000000
Si       0.71083044      -2.17350954      -0.59400876       0.00000000
Si      -2.29118850       0.51855957      -0.49346562       0.00000000
Si       1.94276169      -0.59911362       2.89814840       0.00000000
Si       3.07646424      -2.03647806      -0.75595467       0.00000000
Si      -3.54242340      -1.36130643       0.19080072       0.00000000
Si       0.60447303       3.79586878       0.21730849       0.00000000
Si      -0.36750240      -3.62390598       1.29139093       0.00000000
Si      -0.10803528      -2.70793557      -2.75811972       0.00000000
Si       3.80915586      -0.35626230       0.78570689       0.00000000
