10
Lattice="16.28999089631971 0.0 0.0 0.0 16.28999089631971 0.0 0.0 0.0 34.51530692428229" Properties=species:S:1:pos:R:3:initial_magmoms:R:1 pbc="T T T"
Si       1.39245291      -1.26456175      -1.37986407       0.00000000
Si       1.34302905       1.35557235       1.34663961       0.00000000
Si      -1.43777169       1.19086416      -1.41303675       0.00000000
Si      -1.36668213      -1.36149539       1.34294647       0.00000000
Si      -0.54957573      -2.12278411      -2.54190847       0.00000000
Si      -2.39678028      -0.62033949      -2.79870081       0.00000000
Si       2.70399339      -0.00399105       2.70499028       0.00000000
Si      -0.00988803       2.71041165       2.70530091       0.00000000
Si      -0.01187541      -2.71930207       2.70471415       0.00000000
Si       2.71042794       2.71912680      -0.04474567       0.00000000
