10
Lattice="16.28999089631971 0.0 0.0 0.0 16.28999089631971 0.0 0.0 0.0 34.51530692428229" Properties=species:S:1:pos:R:3:initial_magmoms:R:1 pbc="T T T"
Si      -0.45796077      -1.98458187       1.10756230       0.00000000
Si       0.98355762       1.64330262       1.42065083       0.00000000
Si       1.93613166       0.00573408      -1.39707686       0.00000000
Si      -2.24665164       0.34927389      -0.77103787       0.00000000
Si       0.84344733       3.28329837      -0.30176750       0.00000000
Si       1.80038709       2.21241006      -2.26537892       0.00000000
Si       0.95983938      -3.54189302       0.22911274       0.00000000
Si      -3.18624255       1.95017364       0.71998970       0.00000000
Si      -0.18103077       1.63566261       3.43330853       0.00000000
Si       3.86903790       0.18231768      -0.04241934       0.00000000
