10
Lattice="16.28999089631971 0.0 0.0 0.0 16.28999089631971 0.0 0.0 0.0 34.51530692428229" Properties=species:S:1:pos:R:3:initial_magmoms:R:1 pbc="T T T"
Si       1.39825215       1.62682854       1.01395674       0.00000000
Si      -0.00635310      -1.89449020       1.43414632       0.00000000
Si       0.48006630       0.30266331      -2.35964028       0.00000000
Si      -2.30708754       0.77334657       0.03586142       0.00000000
Si      -1.42048800       1.92581520      -2.28374107       0.00000000
Si      -0.37219392       3.20878302       1.14328567       0.00000000
Si      -0.00576666      -0.93768172       3.53426586       0.00000000
Si       1.46134332       0.89881215       3.27253614       0.00000000
Si      -0.31726404      -1.60485400      -3.50185597       0.00000000
Si      -2.59934643       2.54773482       1.65159287       0.00000000
