10
Lattice="16.28999089631971 0.0 0.0 0.0 16.28999089631971 0.0 0.0 0.0 34.51530692428229" Properties=species:S:1:pos:R:3:initial_magmoms:R:1 pbc="T T T"
Si       1.84720455      -1.50244462       0.25679234       0.00000000
Si      -1.83314628      -0.85171939       1.29943442       0.00000000
Si       0.95900859       1.81120365       1.38566406       0.00000000
Si      -0.98710884      -1.06544908      -2.88613706       0.00000000
Si       2.54490525      -1.32109294      -1.93907103       0.00000000
Si      -0.34639056      -2.11862332       2.75720648       0.00000000
Si      -2.90113497       1.10478780      -2.03923450       0.00000000
Si       2.39678028       0.62033949       2.79870081       0.00000000
Si       2.16757998       0.85851558      -3.08390988       0.00000000
Si       1.00525590      -3.55259555       1.26445314       0.00000000
