10
Lattice="16.28999089631971 0.0 0.0 0.0 16.28999089631971 0.0 0.0 0.0 34.51530692428229" Properties=species:S:1:pos:R:3:initial_magmoms:R:1 pbc="T T T"
Si      -0.69770070      -0.18135168       2.19586337       0.00000000
Si      -0.48363381      -1.73807851      -1.46324274       0.00000000
Si       2.16977913      -0.82836346       0.44317679       0.00000000
Si      -0.37732527       2.17960852      -1.14483886       0.00000000
Si      -2.54490525       1.32109294       1.93907103       0.00000000
Si       1.24432794       0.67687068       3.35790777       0.00000000
Si      -3.53201409       0.25564386      -0.94706604       0.00000000
Si       3.54182067       1.10445223      -0.07824624       0.00000000
Si      -2.34852930       1.71066829      -2.35605068       0.00000000
Si       0.72907524      -1.35018103      -3.45142908       0.00000000
