10
Lattice="16.28999089631971 0.0 0.0 0.0 16.28999089631971 0.0 0.0 0.0 34.51530692428229" Properties=species:S:1:pos:R:3:initial_magmoms:R:1 pbc="T T T"
Si       1.35472527      -1.35707103       1.35893742       0.00000000
Si      -1.35759231      -1.35695700      -1.35641780       0.00000000
Si       1.35708732       1.35791811      -1.35638329       0.00000000
Si      -1.35441576       1.35884664       1.36214735       0.00000000
Si       2.71352304      -2.71357191       0.00100094       0.00000000
Si      -0.00016290      -2.71440270      -2.71380204       0.00000000
Si       2.71459818       0.00055386      -2.71404365       0.00000000
Si      -2.71528236       0.00032580      -2.71411268       0.00000000
Si      -0.00001629       2.71577106      -2.71376752       0.00000000
Si       2.71428867       2.71559187       0.00082837       0.00000000
