10
Lattice="16.28999089631971 0.0 0.0 0.0 16.28999089631971 0.0 0.0 0.0 34.51530692428229" Properties=species:S:1:pos:R:3:initial_magmoms:R:1 pbc="T T T"
Si      -1.35589815      -1.34319195       1.35586901       0.00000000
Si      -1.24276410       1.32600600      -1.48812829       0.00000000
Si       1.24849818      -1.43663139      -1.38457886       0.00000000
Si       1.35850455       1.37238363       1.35742220       0.00000000
Si       2.23845777       0.18298557      -2.82267515       0.00000000
Si       0.68266503       2.07928818      -2.99290474       0.00000000
Si      -2.69118945       2.72100015      -0.02513061       0.00000000
Si       0.00156384      -2.70299970       2.71580738       0.00000000
Si      -2.71394658      -2.71324611      -0.01871421       0.00000000
Si       2.72347623      -2.70387936      -0.01105871       0.00000000
