10
Lattice="16.28999089631971 0.0 0.0 0.0 16.28999089631971 0.0 0.0 0.0 34.51530692428229" Properties=species:S:1:pos:R:3:initial_magmoms:R:1 pbc="T T T"
Si      -0.58513680      -0.82580526      -2.07140279       0.00000000
Si       2.28863097      -0.37089072       0.16315395       0.00000000
Si      -0.70276689      -1.22240160       1.85385269       0.00000000
Si      -0.76872510       2.21076477       0.30684125       0.00000000
Si       2.79709074       1.86626385       0.15252323       0.00000000
Si      -2.94234867      -0.53323686       1.74706227       0.00000000
Si       1.15773030       2.95326297       1.44498413       0.00000000
Si      -2.56318263       1.81354941       1.70788737       0.00000000
Si      -0.20365758      -3.42357156       1.20247945       0.00000000
Si      -1.13986017       1.01980287      -3.32848548       0.00000000
