10
Lattice="16.28999089631971 0.0 0.0 0.0 16.28999089631971 0.0 0.0 0.0 34.51530692428229" Properties=species:S:1:pos:R:3:initial_magmoms:R:1 pbc="T T T"
Si       0.76025430      -1.71012420       1.34595966       0.00000000
Si       0.53641341       0.46825605      -2.26506828       0.00000000
Si      -2.36563380      -0.13703148       0.16194591       0.00000000
Si       0.73269162       1.68021576       1.54166156       0.00000000
Si       3.08385990      -1.26136728       1.53434431       0.00000000
Si      -1.39004199      -0.27424215      -3.40321116       0.00000000
Si      -3.07646424       2.03647806       0.75595467       0.00000000
Si       0.29708073      -3.75624594      -0.08987791       0.00000000
Si       3.05093781       1.16357841       1.93703462       0.00000000
Si      -3.18449952      -0.67145751      -2.00216504       0.00000000
