10
Lattice="16.28999089631971 0.0 0.0 0.0 16.28999089631971 0.0 0.0 0.0 34.51530692428229" Properties=species:S:1:pos:R:3:initial_magmoms:R:1 pbc="T T T"
Si       1.36076886       1.35201036      -1.37391708       0.00000000
Si      -1.35402480      -1.36557441      -1.37032748       0.00000000
Si       1.39211082      -1.40695101       1.33705471       0.00000000
Si      -1.37147139       1.23186609       1.56268139       0.00000000
Si      -2.71384884       2.68195695       0.00231253       0.00000000
Si       2.71604799       2.70474992       0.01905246       0.00000000
Si      -2.71015101      -2.72543103       0.00907753       0.00000000
Si       0.00343719       2.70653530      -2.73527057       0.00000000
Si      -2.71261080      -0.00874773      -2.73478736       0.00000000
Si       2.72100015      -0.01006722      -2.73506348       0.00000000
