10
Lattice="16.28999089631971 0.0 0.0 0.0 16.28999089631971 0.0 0.0 0.0 34.51530692428229" Properties=species:S:1:pos:R:3:initial_magmoms:R:1 pbc="T T T"
Si      -1.35462753      -1.73863170       0.85014700       0.00000000
Si       2.29822578       0.06351471       0.55127879       0.00000000
Si      -0.41664933       0.64558899      -2.26879594       0.00000000
Si      -0.75015450       2.05723708       1.06745549       0.00000000
Si       0.43333029       3.51226151      -0.34152915       0.00000000
Si       2.45452833      -2.09489400       1.63585389       0.00000000
Si       0.72234747       2.69976518      -2.55589442       0.00000000
Si      -2.96657190       2.32216461       0.40669409       0.00000000
Si       3.51093483       0.45141219      -1.43690755       0.00000000
Si      -3.64581603      -1.22007213       0.35668138       0.00000000
