10
Lattice="16.28999089631971 0.0 0.0 0.0 16.28999089631971 0.0 0.0 0.0 34.51530692428229" Properties=species:S:1:pos:R:3:initial_magmoms:R:1 pbc="T T T"
Si       0.86978079      -2.14623894       0.09263914       0.00000000
Si      -1.93290624      -0.17658360      -1.35465752       0.00000000
Si       1.72899846       1.02348441      -1.27454745       0.00000000
Si      -0.54854946       1.08724347       2.04924395       0.00000000
Si       0.68243275      -2.51340758      -2.27718316       0.00000000
Si       2.99285486      -1.42872097       1.01257613       0.00000000
Si       3.40474751       0.86118714       0.39896266       0.00000000
Si      -2.88548028       1.46098494       1.46307016       0.00000000
Si      -2.06865081       2.03009238      -2.22295958       0.00000000
Si      -0.73811619      -3.36249125       1.28490205       0.00000000
