10
Lattice="16.28999089631971 0.0 0.0 0.0 16.28999089631971 0.0 0.0 0.0 34.51530692428229" Properties=species:S:1:pos:R:3:initial_magmoms:R:1 pbc="T T T"
Si      -1.55095461      -1.59483565       0.69009943       0.00000000
Si      -0.29721105       1.85567046       1.40608536       0.00000000
Si       2.31812794      -0.48115351       0.48355972       0.00000000
Si      -0.91799037       1.27355546      -1.86158412       0.00000000
Si      -2.56875381      -2.16068509      -1.50120960       0.00000000
Si      -1.27350333      -1.69195663       3.03227495       0.00000000
Si       2.81554472      -2.22103954      -1.06935384       0.00000000
Si      -0.95995341      -3.65952799      -0.18759080       0.00000000
Si       1.63569519       2.03225406       2.76074288       0.00000000
Si       2.50547598      -0.11398488       2.85338202       0.00000000
