10
Lattice="16.28999089631971 0.0 0.0 0.0 16.28999089631971 0.0 0.0 0.0 34.51530692428229" Properties=species:S:1:pos:R:3:initial_magmoms:R:1 pbc="T T T"
Si      -1.35692221      -1.35760860       1.35721166       0.00000000
Si       1.35846345       1.35672894       1.35738423       0.00000000
Si       1.35943596      -1.35505107      -1.36017998       0.00000000
Si      -1.35943087       1.35801585      -1.35772939       0.00000000
Si      -2.71464484       2.71290402       0.00044870       0.00000000
Si      -2.71404211      -0.00047241       2.71483750       0.00000000
Si       2.71511257       2.71391400       0.00113901       0.00000000
Si       0.00056522       2.71461447       2.71463041       0.00000000
Si      -2.71425388      -2.71564074       0.00010355       0.00000000
Si       0.00085112      -2.71562445       2.71449235       0.00000000
