10
Lattice="16.28999089631971 0.0 0.0 0.0 16.28999089631971 0.0 0.0 0.0 34.51530692428229" Properties=species:S:1:pos:R:3:initial_magmoms:R:1 pbc="T T T"
Si       0.19518678       1.84119354      -1.37194970       0.00000000
Si       2.27568435      -0.41049171      -0.06578621       0.00000000
Si      -1.38706092      -1.65822426      -0.92614975       0.00000000
Si      -0.04259835       0.72617562       2.24801771       0.00000000
Si       2.73041155       1.77207507       1.02224042       0.00000000
Si      -1.76575455       2.86862013      -0.67083988       0.00000000
Si      -0.32557194       0.80469342      -3.40559272       0.00000000
Si       2.57359750      -1.84629231       1.66802217       0.00000000
Si      -1.24695063      -3.29822001       0.79626858       0.00000000
Si       2.33994025       2.68842015      -1.08574862       0.00000000
