10
Lattice="16.28999089631971 0.0 0.0 0.0 16.28999089631971 0.0 0.0 0.0 34.51530692428229" Properties=species:S:1:pos:R:3:initial_magmoms:R:1 pbc="T T T"
Si      -0.44885466       1.58100966      -1.62291064       0.00000000
Si       2.25783377      -0.54595935      -0.53609205       0.00000000
Si      -1.56799395      -1.77513759      -0.39879008       0.00000000
Si      -0.06507855       1.35786924       2.00682461       0.00000000
Si       1.54386424       2.79599931      -1.58649697       0.00000000
Si      -1.51353648      -2.59410105       1.95374004       0.00000000
Si      -2.19592458       2.34895284       1.80560026       0.00000000
Si      -1.93199400       3.17632194      -0.69475900       0.00000000
Si      -0.93537180       0.48358494      -3.72178763       0.00000000
Si       3.40337915       1.35299853      -1.31085757       0.00000000
