10
Lattice="16.28999089631971 0.0 0.0 0.0 16.28999089631971 0.0 0.0 0.0 34.51530692428229" Properties=species:S:1:pos:R:3:initial_magmoms:R:1 pbc="T T T"
Si      -1.81845270       0.49363587       1.41625465       0.00000000
Si       1.50897528       1.70165340      -0.85870680       0.00000000
Si      -2.04674076       0.56250999      -1.28327983       0.00000000
Si       1.13031423      -2.04208182       1.15167289       0.00000000
Si      -0.07636752       1.84375107       2.56686481       0.00000000
Si      -1.72778256      -2.16624420      -1.77715963       0.00000000
Si       1.20625821       3.40408872       0.78757071       0.00000000
Si       3.63982131       0.71056980      -0.65748245       0.00000000
Si       2.64820014      -1.07207748       2.68129347       0.00000000
Si       2.19136338      -3.24140049      -0.71056702       0.00000000
