10
Lattice="16.28999089631971 0.0 0.0 0.0 16.28999089631971 0.0 0.0 0.0 34.51530692428229" Properties=species:S:1:pos:R:3:initial_magmoms:R:1 pbc="T T T"
Si      -1.36335897      -1.35161388       1.39114367       0.00000000
Si       1.35539316       1.36247931       1.38986661       0.00000000
Si      -1.50112350       1.23588972      -1.41524573       0.00000000
Si       1.41721371      -1.30337919      -1.61030219       0.00000000
Si       2.69158041      -2.71173114       0.01502797       0.00000000
Si      -2.71329498      -2.70927135       0.02494077       0.00000000
Si       2.71716044       2.70933651       0.00412458       0.00000000
Si      -2.71780731       2.71985985       0.01599095       0.00000000
Si       2.70926605       0.00456120       2.75153074       0.00000000
Si      -0.00490329      -2.71077003       2.75242814       0.00000000
