10
Lattice="16.28999089631971 0.0 0.0 0.0 16.28999089631971 0.0 0.0 0.0 34.51530692428229" Properties=species:S:1:pos:R:3:initial_magmoms:R:1 pbc="T T T"
Si      -0.59100120       2.06469234       0.87769023       0.00000000
Si       2.34520614      -0.47263806       0.04021036       0.00000000
Si      -1.47533643      -1.34372952       1.33084195       0.00000000
Si      -1.60880040       1.49884290      -1.31361880       0.00000000
Si       2.21099283      -2.00091699      -1.83545602       0.00000000
Si      -1.69974747       0.06748947       3.19874237       0.00000000
Si       1.15862625      -0.40392684      -3.44818463       0.00000000
Si      -0.31354992       1.96757136       3.21986575       0.00000000
Si       0.95995341       3.65952799       0.18759080       0.00000000
Si      -0.63964314       1.45109691      -3.48152644       0.00000000
