10
Lattice="16.28999089631971 0.0 0.0 0.0 16.28999089631971 0.0 0.0 0.0 34.51530692428229" Properties=species:S:1:pos:R:3:initial_magmoms:R:1 pbc="T T T"
Si       1.00069470      -2.09911311      -0.01553190       0.00000000
Si       1.60789698       1.21625231      -1.19226291       0.00000000
Si      -2.17108233      -0.36171945      -1.01336998       0.00000000
Si       0.24202053       0.43044696       2.37765728       0.00000000
Si      -0.49340781      -3.19873698       1.38837900       0.00000000
Si      -0.88457958      -1.48590864       3.07707585       0.00000000
Si       3.01074128      -1.65509658       1.13841900       0.00000000
Si       0.73811619       3.36249125      -1.28490205       0.00000000
Si      -3.58888248       1.19559170      -0.13492041       0.00000000
Si       2.55946755       0.00382815       2.78918351       0.00000000
