10
Lattice="16.28999089631971 0.0 0.0 0.0 16.28999089631971 0.0 0.0 0.0 34.51530692428229" Properties=species:S:1:pos:R:3:initial_magmoms:R:1 pbc="T T T"
Si       0.29791315      -1.43580060       1.73380838       0.00000000
Si      -2.27568435       0.41049171       0.06578621       0.00000000
Si       0.69011119      -0.96883146      -2.09946375       0.00000000
Si       0.45472720       2.18256678       1.08802663       0.00000000
Si       0.06425591       3.09891186      -1.01996240       0.00000000
Si      -2.08049757       2.25168525      -1.30616349       0.00000000
Si       2.59599395      -1.70693136       1.42810614       0.00000000
Si       2.79092009       0.11593593      -1.98739248       0.00000000
Si       1.99583777       2.21092767      -1.75496628       0.00000000
Si      -0.53294757      -0.03710862       3.41801824       0.00000000
