10
Lattice="16.28999089631971 0.0 0.0 0.0 16.28999089631971 0.0 0.0 0.0 34.51530692428229" Properties=species:S:1:pos:R:3:initial_magmoms:R:1 pbc="T T T"
Si       0.18232908      -0.70066548       2.18851329       0.00000000
Si      -1.31165518      -1.44173016      -1.37377901       0.00000000
Si      -1.41565054       1.92324627      -0.03696591       0.00000000
Si       2.23502710       0.70187094      -0.49374174       0.00000000
Si      -1.81038982      -1.91565513       2.15209962       0.00000000
Si       1.59080647       1.54051272      -2.62116290       0.00000000
Si       2.16326965       2.36939679       1.22450023       0.00000000
Si       0.30618195       3.42231723       0.33552349       0.00000000
Si      -1.99166494       1.77148863      -2.29509662       0.00000000
Si      -2.29690696      -3.01307985       0.05322263       0.00000000
