10
Lattice="16.28999089631971 0.0 0.0 0.0 16.28999089631971 0.0 0.0 0.0 34.51530692428229" Properties=species:S:1:pos:R:3:initial_magmoms:R:1 pbc="T T T"
Si      -0.56876535       1.84099806      -1.25097348       0.00000000
Si       0.16527834      -2.13755751      -0.90264481       0.00000000
Si       2.30379696       0.12162114       0.44455740       0.00000000
Si      -1.11934617      -0.25575300       2.05404158       0.00000000
Si       0.73774152      -1.30867344       2.94301832       0.00000000
Si       0.80949897      -2.97619929       1.22477635       0.00000000
Si       2.36312514       0.35137530       2.75808520       0.00000000
Si       1.18708488       1.96747362      -2.84785957       0.00000000
Si      -1.02003907       3.49992279       0.39979102       0.00000000
Si      -2.84117867      -1.75482396       1.68155218       0.00000000
