10
Lattice="16.28999089631971 0.0 0.0 0.0 16.28999089631971 0.0 0.0 0.0 34.51530692428229" Properties=species:S:1:pos:R:3:initial_magmoms:R:1 pbc="T T T"
Si      -0.64422063       0.83864178      -2.12742116       0.00000000
Si      -2.23502710      -0.70187094       0.49374174       0.00000000
Si      -0.07175745       1.66752585       1.71824197       0.00000000
Si       1.98713565      -1.25573094       0.47251482       0.00000000
Si      -0.80949897       2.97619929      -1.22477635       0.00000000
Si      -1.92884514       2.72044629       0.82926523       0.00000000
Si       1.49429799       3.09782043      -0.78021895       0.00000000
Si      -2.05269801      -1.40253642       2.68225503       0.00000000
Si       1.12371678      -3.35039688       1.05827442       0.00000000
Si       1.00447398       0.46680624      -3.66991109       0.00000000
