10
Lattice="16.28999089631971 0.0 0.0 0.0 16.28999089631971 0.0 0.0 0.0 34.51530692428229" Properties=species:S:1:pos:R:3:initial_magmoms:R:1 pbc="T T T"
Si      -1.35694071       1.35798327      -1.36062867       0.00000000
Si       1.35995436      -1.35518302      -1.36128447       0.00000000
Si      -1.35203579      -1.36518671       1.36183671       0.00000000
Si       1.35469269       1.38191328       1.36732465       0.00000000
Si      -2.51727252       0.11463273       2.76378023       0.00000000
Si       2.56971492      -0.12354336       2.71818549       0.00000000
Si       2.71630863      -2.71004417      -0.00303735       0.00000000
Si      -2.71554778      -2.71232477      -0.00348605       0.00000000
Si       0.00078192      -2.71257019      -2.71739163       0.00000000
Si      -2.71396823       0.00171045      -2.71742615       0.00000000
