10
Lattice="16.28999089631971 0.0 0.0 0.0 16.28999089631971 0.0 0.0 0.0 34.51530692428229" Properties=species:S:1:pos:R:3:initial_magmoms:R:1 pbc="T T T"
Si       1.22917824       1.53544068       1.35748778       0.00000000
Si      -1.17809117       1.47747435      -1.49099306       0.00000000
Si      -1.78552572      -0.81119313       1.44536380       0.00000000
Si       1.52298468      -1.22961807      -1.47829142       0.00000000
Si      -2.60109665      -2.52177345      -0.00079385       0.00000000
Si      -0.25197372       3.61747862       0.92483817       0.00000000
Si      -2.34332790       2.95729379      -0.08904954       0.00000000
Si      -2.54160316       0.13033629      -2.85631582       0.00000000
Si       2.80513800      -2.62267371      -0.04908079       0.00000000
Si       0.17457993      -2.58448995      -2.85068982       0.00000000
