10
Lattice="16.28999089631971 0.0 0.0 0.0 16.28999089631971 0.0 0.0 0.0 34.376317263855086" Properties=species:S:1:pos:R:3:initial_magmoms:R:1 pbc="T T T"
Si       0.52038405      -1.72154349       1.43507454       0.00000000
Si      -1.92065616       0.83756829       1.34885869       0.00000000
Si      -1.63379415      -0.66450168      -1.86625693       0.00000000
Si       2.59941159       0.64850490      -0.82970726       0.00000000
Si      -0.00247608       0.08495235      -3.48658555       0.00000000
Si       1.97967483      -0.49935366       2.83389722       0.00000000
Si       1.51021332      -3.19166712      -0.06452438       0.00000000
Si      -2.77904861       2.35249659      -0.46583374       0.00000000
Si      -0.81391030       2.21464735       2.84900561       0.00000000
Si       0.16039134       3.55041269      -1.09928649       0.00000000
