10
Lattice="16.28999089631971 0.0 0.0 0.0 16.28999089631971 0.0 0.0 0.0 34.376317263855086" Properties=species:S:1:pos:R:3:initial_magmoms:R:1 pbc="T T T"
Si      -1.59132123      -1.00779714      -1.45487531       0.00000000
Si      -0.82578897       0.87141726       2.12909840       0.00000000
Si       1.06036497       1.63791063      -1.55047590       0.00000000
Si       2.06436654      -1.54847853       0.10941988       0.00000000
Si      -1.06373700      -1.47351195       2.65430007       0.00000000
Si       2.52224586      -0.06516000       2.11077581       0.00000000
Si      -0.14419908      -2.30135020      -2.85258278       0.00000000
Si       2.56321521       0.43142436      -2.88967484       0.00000000
Si       1.09094130       1.39093794       3.46296901       0.00000000
Si      -3.31174071      -2.03682992      -0.15342159       0.00000000
