10
Lattice="16.28999089631971 0.0 0.0 0.0 16.28999089631971 0.0 0.0 0.0 34.376317263855086" Properties=species:S:1:pos:R:3:initial_magmoms:R:1 pbc="T T T"
Si      -2.11105368      -1.05637296       0.10886986       0.00000000
Si       1.11017979       0.34697537       2.10500059       0.00000000
Si       1.56934602      -1.52453127      -1.00705478       0.00000000
Si      -0.33790347       2.18884657      -0.96686884       0.00000000
Si      -2.09166858      -2.11795968       2.27849796       0.00000000
Si       1.79644491       3.24178330      -0.94153348       0.00000000
Si       3.34836063       1.09155380       1.77907854       0.00000000
Si       3.11870421      -0.34581683      -2.39379619       0.00000000
Si       0.62001369      -2.76237579      -2.79589620       0.00000000
Si      -2.76962580      -2.23928760      -1.87213528       0.00000000
