10
Lattice="16.28999089631971 0.0 0.0 0.0 16.28999089631971 0.0 0.0 0.0 34.376317263855086" Properties=species:S:1:pos:R:3:initial_magmoms:R:1 pbc="T T T"
Si      -1.20850623      -1.60722027      -1.26264769       0.00000000
Si      -1.41097464       1.24527276       1.58637167       0.00000000
Si       1.30831506      -1.45733598       1.57358024       0.00000000
Si       0.58960026       1.43441595      -2.15375109       0.00000000
Si       2.59848306       2.55751371       0.23527165       0.00000000
Si      -2.86531326       2.60268588       0.24209879       0.00000000
Si       2.69083107      -2.88999261       0.12615084       0.00000000
Si      -0.05629824       2.60716563       2.96785695       0.00000000
Si       2.66367564      -0.11124441       2.97160397       0.00000000
Si      -2.76516234      -2.89530315       0.07891776       0.00000000
