10
Lattice="16.28999089631971 0.0 0.0 0.0 16.28999089631971 0.0 0.0 0.0 34.376317263855086" Properties=species:S:1:pos:R:3:initial_magmoms:R:1 pbc="T T T"
Si      -1.35584928      -1.35738054      -1.35721214       0.00000000
Si       1.35891180       1.35765747      -1.35686838       0.00000000
Si      -1.35586557       1.35980775       1.35796842       0.00000000
Si       1.36021500      -1.35909099       1.36003100       0.00000000
Si       2.71151937       0.00306252       2.70803028       0.00000000
Si      -2.71306692       2.71362078       0.00058440       0.00000000
Si      -2.71365336       0.00037467      -2.71438990       0.00000000
Si       0.00162900      -2.71466986      -2.71469929       0.00000000
Si       2.71414206      -2.71584274       0.00041252       0.00000000
Si       2.71560816       2.71453302      -0.00079066       0.00000000
