10
Lattice="16.28999089631971 0.0 0.0 0.0 16.28999089631971 0.0 0.0 0.0 34.376317263855086" Properties=species:S:1:pos:R:3:initial_magmoms:R:1 pbc="T T T"
Si      -1.17726201       1.47949038      -1.49757072       0.00000000
Si       1.50193800      -1.22008842      -1.49378933       0.00000000
Si       1.53790632       1.23424443       1.48498898       0.00000000
Si      -1.83016521      -0.95728185       1.45721290       0.00000000
Si      -2.49126228       2.73890286      -0.01691316       0.00000000
Si      -2.73737160       1.26837198       2.33044060       0.00000000
Si      -2.54721843       0.13952385      -2.86158938       0.00000000
Si       0.16773813      -2.57515578      -2.86495826       0.00000000
Si       2.73227283      -2.72541474      -0.17569746       0.00000000
Si      -2.78484066      -2.71955034      -0.04107972       0.00000000
