10
Lattice="16.28999089631971 0.0 0.0 0.0 16.28999089631971 0.0 0.0 0.0 34.376317263855086" Properties=species:S:1:pos:R:3:initial_magmoms:R:1 pbc="T T T"
Si      -0.81293616      -1.73566692      -1.51169940       0.00000000
Si      -1.76593374       1.69142328       0.44592984       0.00000000
Si       0.63457695      -1.10631906       2.17674400       0.00000000
Si       1.10775258       1.92819843      -1.92235911       0.00000000
Si       2.55212172       2.44496610      -0.19821396       0.00000000
Si      -2.15909289      -2.89768149       0.46600562       0.00000000
Si      -2.14316127       1.30318371       2.74453795       0.00000000
Si      -0.05677065       0.60030279       3.66957079       0.00000000
Si      -0.68413113      -3.12008886       2.35412590       0.00000000
Si       1.29880170      -3.19384998      -2.07423377       0.00000000
