10
Lattice="16.28999089631971 0.0 0.0 0.0 16.28999089631971 0.0 0.0 0.0 34.376317263855086" Properties=species:S:1:pos:R:3:initial_magmoms:R:1 pbc="T T T"
Si      -0.85712346      -2.06043155       0.73252535       0.00000000
Si      -1.40407650       1.79756892      -0.67257302       0.00000000
Si       1.37937041       0.69281370       1.86065359       0.00000000
Si       1.11861638       1.46214153      -2.67062883       0.00000000
Si      -2.04060825      -0.74277839      -2.59905730       0.00000000
Si      -1.47995532      -2.83096484      -1.43596833       0.00000000
Si      -2.72903994       2.05286580       1.24177640       0.00000000
Si      -3.42318942       0.62118657      -1.29017828       0.00000000
Si       0.99245359      -3.19623551       1.80259196       0.00000000
Si       3.54616847      -0.16356789       1.57632691       0.00000000
