10
Lattice="16.28999089631971 0.0 0.0 0.0 16.28999089631971 0.0 0.0 0.0 34.376317263855086" Properties=species:S:1:pos:R:3:initial_magmoms:R:1 pbc="T T T"
Si      -0.30446010       1.54836450       1.68646869       0.00000000
Si       0.29426256       1.42560306      -1.90438029       0.00000000
Si      -2.15992368      -0.89998992      -0.57570051       0.00000000
Si       2.09218986      -1.12057281       0.71310272       0.00000000
Si      -1.65089376       2.84174163       0.16095001       0.00000000
Si      -1.36272366       0.04769712       3.10895260       0.00000000
Si       2.22964488      -2.42980011      -1.28684378       0.00000000
Si       3.39892479       0.97023240       0.43929520       0.00000000
Si      -3.17689209      -0.75852756       1.66450221       0.00000000
Si       2.48617980       2.24839467      -1.48956104       0.00000000
