10
Lattice="16.28999089631971 0.0 0.0 0.0 16.28999089631971 0.0 0.0 0.0 34.376317263855086" Properties=species:S:1:pos:R:3:initial_magmoms:R:1 pbc="T T T"
Si      -1.59013206      -1.74099375       0.07260282       0.00000000
Si      -0.01938510       1.06158672      -2.16962810       0.00000000
Si       1.83871746      -0.69558300       1.50953369       0.00000000
Si      -1.17294516       1.53363834       1.57931765       0.00000000
Si       1.87493013      -2.89988064       0.69398948       0.00000000
Si      -1.90293264       2.43316141      -1.75312441       0.00000000
Si      -1.24115139       3.52179116       0.24795651       0.00000000
Si      -0.31698711      -3.72267225       0.27917023       0.00000000
Si       2.09166858       2.11795968      -2.27849796       0.00000000
Si      -3.30222735      -1.38662109      -1.55755743       0.00000000
