10
Lattice="16.28999089631971 0.0 0.0 0.0 16.28999089631971 0.0 0.0 0.0 34.376317263855086" Properties=species:S:1:pos:R:3:initial_magmoms:R:1 pbc="T T T"
Si       1.32090723      -1.29670029       1.47960909       0.00000000
Si      -1.38251601       1.43265663       1.44742940       0.00000000
Si       1.87918182       0.92079225      -1.32245220       0.00000000
Si      -1.03024476      -1.83589929      -1.40822116       0.00000000
Si       0.58494132       0.06429663      -3.47692034       0.00000000
Si       2.54694150      -2.73967338       0.06781420       0.00000000
Si       2.72166804       2.75048505       0.03140966       0.00000000
Si       3.63283290      -0.89450019      -1.04151534       0.00000000
Si      -2.71534752      -2.77607175      -0.05506402       0.00000000
Si      -0.03165147      -2.64510667       2.84761883       0.00000000
