10
Lattice="16.28999089631971 0.0 0.0 0.0 16.28999089631971 0.0 0.0 0.0 34.376317263855086" Properties=species:S:1:pos:R:3:initial_magmoms:R:1 pbc="T T T"
Si      -1.19205333       0.13916547       1.96653270       0.00000000
Si       2.19032082       0.65160000       0.58656343       0.00000000
Si      -0.82701072       1.80129933      -1.31932942       0.00000000
Si      -0.20483046      -2.38044860      -0.29226761       0.00000000
Si      -0.81656883       0.67357521      -3.41924231       0.00000000
Si      -3.39074721      -0.26252638       1.20870637       0.00000000
Si      -0.19411164      -1.65376536       3.34485192       0.00000000
Si       3.68719263      -0.72231326      -0.51227617       0.00000000
Si      -1.43332452       2.45537541       2.52219181       0.00000000
Si       0.71390925       3.62128329      -0.94352731       0.00000000
