10
Lattice="16.28999089631971 0.0 0.0 0.0 16.28999089631971 0.0 0.0 0.0 34.376317263855086" Properties=species:S:1:pos:R:3:initial_magmoms:R:1 pbc="T T T"
Si       1.19205333      -0.13916547      -1.96653270       0.00000000
Si      -2.19869388      -0.40169185      -0.75782634       0.00000000
Si      -0.24127119       2.31620994       0.55565910       0.00000000
Si       0.99794169      -1.79293083       1.37831921       0.00000000
Si      -0.32431761       1.79466930       2.83058192       0.00000000
Si       0.98722287      -2.51961407      -2.25880032       0.00000000
Si      -3.41249436       1.07598708       0.64245935       0.00000000
Si       3.38237415       0.51243453      -1.37996928       0.00000000
Si       0.36504261       1.66213386      -3.28586212       0.00000000
Si      -2.43874332      -2.75953319      -0.67687007       0.00000000
