10
Lattice="16.28999089631971 0.0 0.0 0.0 16.28999089631971 0.0 0.0 0.0 34.376317263855086" Properties=species:S:1:pos:R:3:initial_magmoms:R:1 pbc="T T T"
Si      -0.51039828      -1.29780638       1.88299821       0.00000000
Si       1.09550250      -1.68638153      -1.22816337       0.00000000
Si      -2.06231400       0.85242312      -0.83761381       0.00000000
Si       1.58021145       1.75819599       0.58704470       0.00000000
Si       2.02211028      -0.19013688      -2.77705797       0.00000000
Si      -0.74005470      -2.73517701      -2.28987653       0.00000000
Si      -2.38016448       2.91195153       0.16528143       0.00000000
Si       0.99297324      -3.10942610       2.13497675       0.00000000
Si       2.42303976      -3.06246203       0.25046599       0.00000000
Si      -1.97926758       1.37396376      -3.11253663       0.00000000
