10
Lattice="16.28999089631971 0.0 0.0 0.0 16.28999089631971 0.0 0.0 0.0 34.376317263855086" Properties=species:S:1:pos:R:3:initial_magmoms:R:1 pbc="T T T"
Si       0.52579233      -1.73651141       1.47618864       0.00000000
Si       2.23818084       0.74457843      -0.32592205       0.00000000
Si      -1.11017979      -0.34697537      -2.10500059       0.00000000
Si      -0.86051925       1.79505374       1.46618513       0.00000000
Si       2.38321071       1.40381681       1.84346542       0.00000000
Si       0.45916623      -1.87150664      -3.11205536       0.00000000
Si       2.27061423      -2.89437203       0.40794398       0.00000000
Si      -1.36313091      -3.16051805       1.68303106       0.00000000
Si      -1.44808326       1.84187120      -3.07186943       0.00000000
Si       3.74155236      -1.06704128      -0.07394350       0.00000000
