10
Lattice="16.28999089631971 0.0 0.0 0.0 16.28999089631971 0.0 0.0 0.0 34.376317263855086" Properties=species:S:1:pos:R:3:initial_magmoms:R:1 pbc="T T T"
Si      -0.12632895       1.58876370       1.64336077       0.00000000
Si      -0.60142680       1.00738989      -2.06141139       0.00000000
Si       2.28134934      -0.33197391      -0.63575597       0.00000000
Si      -1.19944899      -2.10953871       0.30649942       0.00000000
Si       1.58936643      -1.94572647      -2.15113363       0.00000000
Si       0.29300823      -0.56112534      -3.55413505       0.00000000
Si      -1.86285924       3.00975669       0.84864862       0.00000000
Si       1.72232541       2.98861227       1.23875128       0.00000000
Si       0.23185557      -3.56563665      -1.04569378       0.00000000
Si      -0.11129328       0.64470933       3.85561552       0.00000000
