10
Lattice="16.28999089631971 0.0 0.0 0.0 16.28999089631971 0.0 0.0 0.0 34.376317263855086" Properties=species:S:1:pos:R:3:initial_magmoms:R:1 pbc="T T T"
Si       1.63574406      -0.25770780       1.63504169       0.00000000
Si      -0.62744193       2.23814826      -0.16631272       0.00000000
Si       0.40215123      -1.09615410      -2.05508615       0.00000000
Si      -1.53090162      -1.31168709       1.29402843       0.00000000
Si      -1.54758258       2.47407633       1.97560806       0.00000000
Si      -1.21305114      -3.37121550       0.29113319       0.00000000
Si      -1.13000472      -2.84967486      -1.98378963       0.00000000
Si      -2.73704580       2.19240594      -1.15284482       0.00000000
Si       0.50958378       0.13507668       3.67864614       0.00000000
Si       2.54967822      -2.02131207      -1.83188059       0.00000000
