10
Lattice="16.28999089631971 0.0 0.0 0.0 16.28999089631971 0.0 0.0 0.0 34.376317263855086" Properties=species:S:1:pos:R:3:initial_magmoms:R:1 pbc="T T T"
Si       1.35620766       1.35542574       1.35704026       0.00000000
Si      -1.35747828       1.35685926      -1.35793404       0.00000000
Si       1.35754344      -1.35829278      -1.35714339       0.00000000
Si      -1.35853713      -1.35876519       1.35628398       0.00000000
Si       2.71309950      -0.00079821       2.71212107       0.00000000
Si      -0.00180819      -2.71357191       2.71466492       0.00000000
Si       2.71409319       2.71451673      -0.00017188       0.00000000
Si      -2.71402803       0.00280188       2.71511181       0.00000000
Si      -0.00057015       2.71375110      -2.71552432       0.00000000
Si       2.71443528      -2.71511946      -0.00027501       0.00000000
