10
Lattice="16.28999089631971 0.0 0.0 0.0 16.28999089631971 0.0 0.0 0.0 34.376317263855086" Properties=species:S:1:pos:R:3:initial_magmoms:R:1 pbc="T T T"
Si      -1.35658036       1.35671265       1.36171544       0.00000000
Si       1.36042840      -1.35897696       1.36095916       0.00000000
Si      -1.36577660      -1.35723393      -1.36177732       0.00000000
Si       1.37290654       1.36226754      -1.38259563       0.00000000
Si       0.00870375      -2.66390533      -2.76160580       0.00000000
Si       2.71715734       2.70990666       0.00254385       0.00000000
Si      -2.71277926      -2.71520580       0.00220009       0.00000000
Si      -2.71424536       2.71469592       0.00580960       0.00000000
Si      -2.71308877      -0.00114030       2.71837756       0.00000000
Si       0.00169742       2.71373481       2.71854944       0.00000000
