10
Lattice="16.28999089631971 0.0 0.0 0.0 16.28999089631971 0.0 0.0 0.0 34.376317263855086" Properties=species:S:1:pos:R:3:initial_magmoms:R:1 pbc="T T T"
Si       0.48708729      -0.75927690       2.16804030       0.00000000
Si      -2.24477829      -0.38861424       0.66119446       0.00000000
Si       0.29532141      -1.33854930      -2.02676005       0.00000000
Si       1.59198912       1.96289613      -0.20639552       0.00000000
Si      -3.15752328       0.88954803      -1.26766178       0.00000000
Si       3.21440796       0.68520627      -1.40423897       0.00000000
Si       1.21792185       1.32335073       3.28753079       0.00000000
Si       2.05892568      -0.31335444      -3.17781730       0.00000000
Si       0.44000919       3.35999169      -1.72720465       0.00000000
Si       2.39506983      -2.48658705       1.79654172       0.00000000
