10
Lattice="16.28999089631971 0.0 0.0 0.0 16.28999089631971 0.0 0.0 0.0 34.376317263855086" Properties=species:S:1:pos:R:3:initial_magmoms:R:1 pbc="T T T"
Si       1.35602847       1.35723846      -1.35789967       0.00000000
Si       1.35775521      -1.35751086       1.35714339       0.00000000
Si      -1.35739683       1.35717936       1.35789967       0.00000000
Si      -1.35816246      -1.35754344      -1.35683400       0.00000000
Si       0.00040725      -2.71075374      -2.71665874       0.00000000
Si      -0.00195480       2.71339339       2.71500868       0.00000000
Si       2.71480995      -0.00218286       2.71370238       0.00000000
Si      -2.71446786       2.71456627      -0.00010313       0.00000000
Si      -2.71437012      -0.00074934      -2.71473367       0.00000000
Si       2.71489140       2.71494094      -0.00024063       0.00000000
