10
Lattice="16.28999089631971 0.0 0.0 0.0 16.28999089631971 0.0 0.0 0.0 34.376317263855086" Properties=species:S:1:pos:R:3:initial_magmoms:R:1 pbc="T T T"
Si       1.34557029       1.35230036       1.35896533       0.00000000
Si       1.35443205      -1.35982404      -1.36247172       0.00000000
Si      -1.36233270       1.35575221      -1.36116542       0.00000000
Si      -1.37477826      -1.35964485       1.38440382       0.00000000
Si       2.58295869      -0.01894949       2.78792089       0.00000000
Si      -0.09516618       2.67614468       2.70710212       0.00000000
Si       2.70992295      -2.71321353      -0.00195945       0.00000000
Si       2.70948312       2.71680452      -0.00092816       0.00000000
Si      -2.71625976       2.71250396      -0.00154694       0.00000000
Si       2.71192662      -0.00021934      -2.71865257       0.00000000
