10
Lattice="16.28999089631971 0.0 0.0 0.0 16.28999089631971 0.0 0.0 0.0 34.376317263855086" Properties=species:S:1:pos:R:3:initial_magmoms:R:1 pbc="T T T"
Si      -1.35747828      -1.35523525      -1.35755590       0.00000000
Si       1.36119240      -1.35340316       1.35734965       0.00000000
Si       1.35808454       1.35955688      -1.35769341       0.00000000
Si      -1.35992178       1.36178861       1.36016851       0.00000000
Si       2.71386417      -2.71386254      -0.00089378       0.00000000
Si       0.00048870      -2.71299917      -2.71535244       0.00000000
Si      -2.71497285      -2.71483994      -0.00137505       0.00000000
Si      -2.71489140       0.00228386      -2.71531807       0.00000000
Si       2.71548177       0.00229526      -2.71497430       0.00000000
Si       2.71477967       2.71705145      -0.00065315       0.00000000
