10
Lattice="16.28999089631971 0.0 0.0 0.0 16.28999089631971 0.0 0.0 0.0 34.376317263855086" Properties=species:S:1:pos:R:3:initial_magmoms:R:1 pbc="T T T"
Si       0.92681955       0.84767459       2.00152781       0.00000000
Si       1.87128117      -0.34210696      -1.46130369       0.00000000
Si      -1.59161445      -1.71484897       0.54393677       0.00000000
Si      -1.27361736       1.74662032      -1.11630277       0.00000000
Si      -2.68693776      -2.19320482      -1.47646365       0.00000000
Si      -2.96520354      -0.81046075       2.22153637       0.00000000
Si       1.55849688      -0.90769576       3.37730318       0.00000000
Si      -0.57005226       2.22158785       3.10036741       0.00000000
Si      -0.00063531       3.77119039      -0.95205264       0.00000000
Si       2.72840463       1.71832459      -2.19382904       0.00000000
