10
Lattice="16.28999089631971 0.0 0.0 0.0 16.28999089631971 0.0 0.0 0.0 34.376317263855086" Properties=species:S:1:pos:R:3:initial_magmoms:R:1 pbc="T T T"
Si      -0.37773252      -0.23967477      -2.27110705       0.00000000
Si       2.20048578       0.59781042       0.52973935       0.00000000
Si      -0.92660778      -1.49624465       1.54889459       0.00000000
Si      -0.32169492       2.39246343      -0.18356964       0.00000000
Si       0.14058270       2.09262969      -2.64629038       0.00000000
Si      -2.02211028       0.19013688       2.77705797       0.00000000
Si       1.67081643       2.27776554       2.16949059       0.00000000
Si      -2.76216498      -2.54504013       0.48718144       0.00000000
Si       3.26326397       1.21479417      -1.54232871       0.00000000
Si       3.44784433      -1.14491333       1.38069118       0.00000000
