10
Lattice="16.28999089631971 0.0 0.0 0.0 16.28999089631971 0.0 0.0 0.0 34.376317263855086" Properties=species:S:1:pos:R:3:initial_magmoms:R:1 pbc="T T T"
Si      -1.31090517       1.37290491      -1.36690283       0.00000000
Si      -1.35415512      -1.34442999       1.36227234       0.00000000
Si       1.36266894       1.37156913       1.35773466       0.00000000
Si       1.39208706      -1.27576764      -1.43966035       0.00000000
Si       2.16691928       0.56037600      -2.81512086       0.00000000
Si       0.37555685       2.27858004      -2.88218909       0.00000000
Si      -2.69855253      -2.68969077      -0.00855627       0.00000000
Si       0.00350988      -2.70241326       2.71817818       0.00000000
Si      -2.70922248       0.01135413       2.71721564       0.00000000
Si       2.73299678      -2.69685837      -0.02613289       0.00000000
