10
Lattice="16.28999089631971 0.0 0.0 0.0 16.28999089631971 0.0 0.0 0.0 34.376317263855086" Properties=species:S:1:pos:R:3:initial_magmoms:R:1 pbc="T T T"
Si      -1.35834165       1.35749457       1.35432453       0.00000000
Si       1.35904212      -1.35615879       1.35569958       0.00000000
Si      -1.35700587      -1.35682668      -1.35807155       0.00000000
Si       1.35865445       1.35760860      -1.35783091       0.00000000
Si      -2.70438435      -0.00127062       2.71909946       0.00000000
Si      -0.00382815       2.70940167       2.71652124       0.00000000
Si       2.71288677       2.71423980      -0.00055002       0.00000000
Si       2.69778594      -0.00174303       2.72937799       0.00000000
Si      -2.71389771       0.00000000      -2.71493993       0.00000000
Si      -2.71523349       2.71371852      -0.00075628       0.00000000
