10
Lattice="16.28999089631971 0.0 0.0 0.0 16.28999089631971 0.0 0.0 0.0 34.376317263855086" Properties=species:S:1:pos:R:3:initial_magmoms:R:1 pbc="T T T"
Si      -0.79373025       2.20773483      -0.08075001       0.00000000
Si      -1.58021145      -1.75819599      -0.58704470       0.00000000
Si       2.11271526       0.32943267      -1.19461207       0.00000000
Si       0.52851276       0.26720487       2.56423407       0.00000000
Si       3.46927383       0.19860768       0.76023268       0.00000000
Si       0.12020391       0.44413056      -3.54767230       0.00000000
Si      -1.91989053       2.60051931       1.96285444       0.00000000
Si       2.53078182       1.49863113       2.49280004       0.00000000
Si      -2.42947431       2.46544263      -1.71579171       0.00000000
Si       0.44189883      -1.94833287      -3.36410266       0.00000000
