10
Lattice="16.28999089631971 0.0 0.0 0.0 16.28999089631971 0.0 0.0 0.0 34.376317263855086" Properties=species:S:1:pos:R:3:initial_magmoms:R:1 pbc="T T T"
Si      -1.43949843      -1.46067543      -1.25459332       0.00000000
Si      -1.34348517       1.30960197       1.53814511       0.00000000
Si       1.36326123      -1.39676976       1.53246958       0.00000000
Si       1.63319372       1.34593032      -1.34376553       0.00000000
Si       2.72790289      -2.67551847       0.03433165       0.00000000
Si      -2.83467177       2.58028943       0.14272024       0.00000000
Si       2.73993957       2.72300938       0.15638139       0.00000000
Si      -2.71340901      -2.84284935       0.14753292       0.00000000
Si      -0.15659577       0.74585394      -3.87400140       0.00000000
Si       0.01845657       2.67170891       2.92018728       0.00000000
