10
Lattice="16.28999089631971 0.0 0.0 0.0 16.28999089631971 0.0 0.0 0.0 34.376317263855086" Properties=species:S:1:pos:R:3:initial_magmoms:R:1 pbc="T T T"
Si      -1.35163017      -1.35444834       1.37908580       0.00000000
Si       1.36194174       1.36210694       1.38204217       0.00000000
Si      -1.49118660       1.27068746      -1.39542488       0.00000000
Si       1.34348517      -1.30960197      -1.53814511       0.00000000
Si       2.70674640      -2.70637173      -0.00567553       0.00000000
Si       2.70894440       2.72007881       0.01806476       0.00000000
Si      -2.71722087       2.71366055       0.01637001       0.00000000
Si      -2.71999017      -2.71831230       0.00160194       0.00000000
Si      -2.71267596       0.00362091       2.74056061       0.00000000
Si       0.00400734      -2.71285515       2.74087000       0.00000000
