10
Lattice="16.28999089631971 0.0 0.0 0.0 16.28999089631971 0.0 0.0 0.0 34.376317263855086" Properties=species:S:1:pos:R:3:initial_magmoms:R:1 pbc="T T T"
Si      -1.34506530      -1.36345671       1.38936777       0.00000000
Si       1.36915074       1.35034326       1.38407381       0.00000000
Si       1.36464166      -1.27874871      -1.49813793       0.00000000
Si      -1.36326123       1.39676976      -1.53246958       0.00000000
Si      -2.69384472      -2.71502172       0.02784139       0.00000000
Si       2.71494746      -2.69625564       0.02206617       0.00000000
Si      -2.70674640       2.70637173       0.00567553       0.00000000
Si      -2.70273906      -0.00648342       2.74654553       0.00000000
Si       2.73578237       2.71881573       0.00989695       0.00000000
Si       0.01206282       2.71041617       2.74688929       0.00000000
