10
Lattice="16.28999089631971 0.0 0.0 0.0 16.28999089631971 0.0 0.0 0.0 34.376317263855086" Properties=species:S:1:pos:R:3:initial_magmoms:R:1 pbc="T T T"
Si       1.10837160      -1.22192919      -1.68337482       0.00000000
Si      -2.17578851      -0.92028726       0.22495875       0.00000000
Si       0.66635874       0.55369710       2.21263290       0.00000000
Si      -0.31379427       2.17839654      -1.00657351       0.00000000
Si      -1.21856042      -0.56778795       3.05155301       0.00000000
Si       0.60092181       0.24293277      -3.59201777       0.00000000
Si      -3.11428052       0.37973619       1.95752610       0.00000000
Si      -1.21915989       3.52893528       0.72241871       0.00000000
Si       3.41365095      -1.45687986      -0.94603678       0.00000000
Si      -1.20997233       1.82728188      -3.19765244       0.00000000
