10
Lattice="16.28999089631971 0.0 0.0 0.0 16.28999089631971 0.0 0.0 0.0 34.376317263855086" Properties=species:S:1:pos:R:3:initial_magmoms:R:1 pbc="T T T"
Si       1.36995642       1.33996653       1.36401865       0.00000000
Si      -1.36069555       1.35475785      -1.36116542       0.00000000
Si       1.35775521      -1.36086660      -1.36075290       0.00000000
Si      -1.37579638      -1.36122498       1.36876259       0.00000000
Si       2.54721843      -0.13952385       2.86158938       0.00000000
Si      -2.71372571       2.71443528      -0.00415954       0.00000000
Si       2.71495656      -2.71467963      -0.00336888       0.00000000
Si      -2.71454021      -2.71564074      -0.00491582       0.00000000
Si      -0.00065160       2.71331127      -2.71841194       0.00000000
Si       2.71652040       2.71580364      -0.00192507       0.00000000
