10
Lattice="16.28999089631971 0.0 0.0 0.0 16.28999089631971 0.0 0.0 0.0 34.376317263855086" Properties=species:S:1:pos:R:3:initial_magmoms:R:1 pbc="T T T"
Si       1.35586557       1.35657596       1.35683400       0.00000000
Si       1.35744570      -1.35724097      -1.35738402       0.00000000
Si      -1.35746525       1.35824895      -1.35734965       0.00000000
Si      -1.35908285      -1.35790886       1.35673087       0.00000000
Si      -2.71175462       0.00255053       2.71497430       0.00000000
Si      -0.00143352      -2.71157528       2.71593684       0.00000000
Si       2.71456560       0.00003597      -2.71387426       0.00000000
Si       0.00162900      -2.71506134      -2.71370238       0.00000000
Si      -2.71462810      -2.71436087       0.00003438       0.00000000
Si       2.71510317      -2.71449119      -0.00020626       0.00000000
