10
Lattice="16.28999089631971 0.0 0.0 0.0 16.28999089631971 0.0 0.0 0.0 34.376317263855086" Properties=species:S:1:pos:R:3:initial_magmoms:R:1 pbc="T T T"
Si      -0.17342497       0.88808193      -2.16966248       0.00000000
Si      -1.61806241       0.95133600       1.41922705       0.00000000
Si       2.00766105       1.06383474       0.62118040       0.00000000
Si      -0.11921022      -2.37241044       0.71138391       0.00000000
Si       2.59468749      -0.85020768       1.88574831       0.00000000
Si      -3.17030183      -0.85610466       0.96387810       0.00000000
Si       0.92110176      -0.88202205      -3.20875600       0.00000000
Si       0.77696784      -2.02129578       2.90246284       0.00000000
Si       0.37934523       3.21310476      -2.08475293       0.00000000
Si       1.58719986       3.29331672       1.39186349       0.00000000
