10
Lattice="16.28999089631971 0.0 0.0 0.0 16.28999089631971 0.0 0.0 0.0 34.376317263855086" Properties=species:S:1:pos:R:3:initial_magmoms:R:1 pbc="T T T"
Si      -1.56916750       1.49390703       1.00849858       0.00000000
Si       1.63250887       1.80198351      -0.05761474       0.00000000
Si       0.60128671      -2.18804022       0.96226241       0.00000000
Si      -0.88837792      -0.56594718      -2.24996560       0.00000000
Si      -2.72911324       2.29584744      -0.94387107       0.00000000
Si       2.31688435       1.77603354      -2.27732916       0.00000000
Si      -1.59651841       1.66218273      -2.90050339       0.00000000
Si      -3.10839331       0.08438220       2.05735499       0.00000000
Si      -1.57257211      -3.10783878       1.35786529       0.00000000
Si       1.50665233      -3.53857896      -0.76672981       0.00000000
