10
Lattice="16.28999089631971 0.0 0.0 0.0 16.28999089631971 0.0 0.0 0.0 34.376317263855086" Properties=species:S:1:pos:R:3:initial_magmoms:R:1 pbc="T T T"
Si       1.61806241      -0.95133600      -1.41922705       0.00000000
Si      -1.55223942      -1.80744066      -0.45534895       0.00000000
Si      -0.70814049       2.22812991      -0.65053779       0.00000000
Si       0.88837792       0.56594718       2.24996560       0.00000000
Si      -2.23242837      -2.25010512       1.75088995       0.00000000
Si      -1.84073532       2.86179462       1.30609453       0.00000000
Si       1.39270329       3.10878360      -1.34813679       0.00000000
Si      -2.98986450      -0.64163052      -2.06643034       0.00000000
Si       1.49885219      -3.32374644      -0.70784314       0.00000000
Si       3.62572346       0.11249874      -0.79804665       0.00000000
