10
Lattice="16.28999089631971 0.0 0.0 0.0 16.28999089631971 0.0 0.0 0.0 34.376317263855086" Properties=species:S:1:pos:R:3:initial_magmoms:R:1 pbc="T T T"
Si       0.33860394       2.24022428       0.57865687       0.00000000
Si       2.11752081      -1.04205501       0.50687908       0.00000000
Si      -2.21511094      -0.79244334       0.80492192       0.00000000
Si       1.24571259       0.84090676      -2.15378061       0.00000000
Si       2.10922920       2.68966538      -0.94435234       0.00000000
Si       1.31800761      -2.74126491       1.96952345       0.00000000
Si      -1.82819412       3.09660587       0.86298355       0.00000000
Si      -2.20332187      -3.02029632       0.08181568       0.00000000
Si       3.00837204      -2.29853529      -1.46181933       0.00000000
Si      -0.10533114      -4.03296417       0.58171637       0.00000000
