10
Lattice="16.28999089631971 0.0 0.0 0.0 16.28999089631971 0.0 0.0 0.0 34.376317263855086" Properties=species:S:1:pos:R:3:initial_magmoms:R:1 pbc="T T T"
Si      -1.63131807      -0.74945403       1.62032862       0.00000000
Si      -1.89841542       1.36085424      -0.64840646       0.00000000
Si       0.47260548      -2.35670688      -0.47999679       0.00000000
Si       1.87190019       1.46307562      -0.67556376       0.00000000
Si       0.00247608      -0.08495235       3.48658555       0.00000000
Si      -1.09477597       2.20218387      -2.70122377       0.00000000
Si       2.18470077      -2.71107954       1.15016347       0.00000000
Si       2.60188767       0.56355255       2.65687829       0.00000000
Si       1.15698096      -2.38265685      -2.69971121       0.00000000
Si      -1.77803069       3.23223641       0.89512543       0.00000000
