10
Lattice="16.28999089631971 0.0 0.0 0.0 16.28999089631971 0.0 0.0 0.0 34.24959146834617" Properties=species:S:1:pos:R:3:initial_magmoms:R:1 pbc="T T T"
Si      -2.00989604      -0.89464680       0.78972752       0.00000000
Si       0.73959858       0.66127626       2.14584085       0.00000000
Si       0.95796603      -1.75865211      -1.27497600       0.00000000
Si       0.40562100       1.95939378      -1.31682903       0.00000000
Si      -0.88006725      -2.94176223       1.36940218       0.00000000
Si       2.77456167       1.48913406       1.49437901       0.00000000
Si       3.13466841      -0.89915913      -1.59582636       0.00000000
Si      -3.35389013      -1.05798663      -1.07550627       0.00000000
Si      -1.75951059       2.91915075      -1.39659637       0.00000000
Si       2.22011523       3.01949552      -0.18806461       0.00000000
