10
Lattice="16.28999089631971 0.0 0.0 0.0 16.28999089631971 0.0 0.0 0.0 34.24959146834617" Properties=species:S:1:pos:R:3:initial_magmoms:R:1 pbc="T T T"
Si      -0.00900837      -0.39024324       2.26831746       0.00000000
Si       2.27948088       0.30195048      -0.40219318       0.00000000
Si      -0.55402520      -2.11670631      -0.82627186       0.00000000
Si      -1.50470960       1.79106011      -0.25868731       0.00000000
Si       2.16888807       2.27278799      -1.61250592       0.00000000
Si      -2.91980561      -1.89884385      -0.76318407       0.00000000
Si      -0.39909101       3.65217632       0.62841186       0.00000000
Si       0.28325215       2.08669103      -3.09284259       0.00000000
Si       2.16597216      -0.13725954       3.15976633       0.00000000
Si       3.23863608      -1.60795332      -1.38275953       0.00000000
