10
Lattice="16.28999089631971 0.0 0.0 0.0 16.28999089631971 0.0 0.0 0.0 34.24959146834617" Properties=species:S:1:pos:R:3:initial_magmoms:R:1 pbc="T T T"
Si       1.35464382      -1.35184520      -1.35994929       0.00000000
Si      -1.35785295      -1.35023086       1.36919668       0.00000000
Si      -1.35997065       1.36146933      -1.35878480       0.00000000
Si       1.36752921       1.35845568       1.38029356       0.00000000
Si       2.70817992      -2.70884191       0.00431545       0.00000000
Si      -0.00285075      -2.71057341      -2.71637087       0.00000000
Si       2.70961344       2.71831230      -0.00095899       0.00000000
Si       2.71210581       0.00495216      -2.71626812       0.00000000
Si      -2.71533123      -2.71329099      -0.00263722       0.00000000
Si      -2.71725345       0.00400734      -2.71650787       0.00000000
