10
Lattice="16.28999089631971 0.0 0.0 0.0 16.28999089631971 0.0 0.0 0.0 34.24959146834617" Properties=species:S:1:pos:R:3:initial_magmoms:R:1 pbc="T T T"
Si       1.35588186      -1.35274907      -1.35700382       0.00000000
Si      -1.35974259       1.35948447      -1.35642158       0.00000000
Si      -1.34006427      -1.37149886       1.36710746       0.00000000
Si       1.35747828       1.36306013       1.37183390       0.00000000
Si      -2.46635487       0.14106529       2.73013921       0.00000000
Si       2.71148679      -2.70965720       0.00599368       0.00000000
Si      -0.00216657      -2.71157942      -2.71349390       0.00000000
Si      -2.71586880      -2.70957575       0.00527444       0.00000000
Si       2.71248048       0.00271758      -2.71373365       0.00000000
Si       2.71533123       2.71329099       0.00263722       0.00000000
