10
Lattice="16.28999089631971 0.0 0.0 0.0 16.28999089631971 0.0 0.0 0.0 34.24959146834617" Properties=species:S:1:pos:R:3:initial_magmoms:R:1 pbc="T T T"
Si       0.96964596       1.75252707      -1.17222717       0.00000000
Si      -2.33711001      -0.34360497      -0.04294901       0.00000000
Si       0.93675645       0.23498325       2.36449037       0.00000000
Si       0.61023969      -1.52230050      -1.98777890       0.00000000
Si      -2.46049047       1.00569573      -2.10659080       0.00000000
Si      -2.03421375      -2.80645749       0.14292363       0.00000000
Si      -0.35782614       1.99210410       3.15096418       0.00000000
Si       0.12561219      -3.70778319       0.71982407       0.00000000
Si       3.06585945       1.11286764      -1.98839539       0.00000000
Si       1.46997702      -3.40024428      -1.06040219       0.00000000
