10
Lattice="16.28999089631971 0.0 0.0 0.0 16.28999089631971 0.0 0.0 0.0 34.24959146834617" Properties=species:S:1:pos:R:3:initial_magmoms:R:1 pbc="T T T"
Si       1.35637056       1.35776196      -1.35649008       0.00000000
Si      -1.35710361       1.35680840       1.35724357       0.00000000
Si       1.35760860      -1.35700587       1.35789431       0.00000000
Si      -1.35718506      -1.35904212      -1.35772306       0.00000000
Si       0.00094482      -2.71402803      -2.71435014       0.00000000
Si       0.00003258       2.71405802       2.71496663       0.00000000
Si       0.00074934      -2.71533123       2.71448714       0.00000000
Si       2.71480995       2.71503868       0.00017125       0.00000000
Si       2.71466334      -2.71524978      -0.00017125       0.00000000
Si       2.71565703       0.00182448       2.71438439       0.00000000
