10
Lattice="16.28999089631971 0.0 0.0 0.0 16.28999089631971 0.0 0.0 0.0 34.24959146834617" Properties=species:S:1:pos:R:3:initial_magmoms:R:1 pbc="T T T"
Si      -0.37776510      -2.03221008      -1.01615170       0.00000000
Si      -1.20221829       0.12834891       2.02504248       0.00000000
Si       2.13198633       0.66222108       0.89370934       0.00000000
Si      -1.41846804       0.52025373      -1.92130041       0.00000000
Si       1.44588411       2.91723831       0.58700408       0.00000000
Si       0.32907429       1.45871902      -3.18579603       0.00000000
Si       1.71844839      -2.67186951      -1.83231992       0.00000000
Si      -3.32832393       1.01382444       1.47406899       0.00000000
Si       2.28477024      -0.48467637       3.07643702       0.00000000
Si       1.25561691       3.31445204      -1.81337988       0.00000000
