10
Lattice="16.28999089631971 0.0 0.0 0.0 16.28999089631971 0.0 0.0 0.0 34.24959146834617" Properties=species:S:1:pos:R:3:initial_magmoms:R:1 pbc="T T T"
Si       2.12610564      -0.88547553       0.55097349       0.00000000
Si      -1.10596068       0.05209542       2.11196799       0.00000000
Si       0.36554760       2.20492385      -0.88024924       0.00000000
Si      -1.99057284      -1.77846075      -0.34451683       0.00000000
Si       0.70853355       1.11219716       3.24073241       0.00000000
Si       2.68389153       1.04876716       1.98551843       0.00000000
Si       0.27960156       1.41312396      -3.32738392       0.00000000
Si       1.62308673      -2.80645749       1.83297066       0.00000000
Si       2.70023040       2.57496749       0.21984825       0.00000000
Si       3.32832393      -1.01382444      -1.47406899       0.00000000
