10
Lattice="16.28999089631971 0.0 0.0 0.0 16.28999089631971 0.0 0.0 0.0 34.24959146834617" Properties=species:S:1:pos:R:3:initial_magmoms:R:1 pbc="T T T"
Si      -2.03496309      -0.82785780       0.65146184       0.00000000
Si       1.12552497      -1.80452475      -0.94830322       0.00000000
Si      -0.55444644       1.53036146      -1.68244362       0.00000000
Si       1.39877343       0.39615651       1.83827935       0.00000000
Si      -2.77456167      -1.48913406      -1.49437901       0.00000000
Si       0.45545211      -3.43474650       0.72448201       0.00000000
Si       2.50382187       2.30258891       1.04731884       0.00000000
Si      -2.99411829       1.08204600       1.63202820       0.00000000
Si       1.42091154       1.46693146      -2.93765760       0.00000000
Si      -1.38349341      -2.54093049       2.10597431       0.00000000
