10
Lattice="16.28999089631971 0.0 0.0 0.0 16.28999089631971 0.0 0.0 0.0 34.24959146834617" Properties=species:S:1:pos:R:3:initial_magmoms:R:1 pbc="T T T"
Si      -1.35659862      -1.35546665       1.35672983       0.00000000
Si       1.35749457       1.35872821       1.35642158       0.00000000
Si      -1.35744570       1.35774755      -1.35748332       0.00000000
Si       1.35765747      -1.35716081      -1.35820256       0.00000000
Si      -2.71248048      -0.00271758       2.71373365       0.00000000
Si       0.00285075       2.71057341       2.71637087       0.00000000
Si      -2.71464705      -2.71429700       0.00023975       0.00000000
Si      -2.71440270       2.71458075      -0.00013700       0.00000000
Si      -2.71588509       0.00047083      -2.71414464       0.00000000
Si       2.71513575      -2.71496489      -0.00037675       0.00000000
