10
Lattice="16.28999089631971 0.0 0.0 0.0 16.28999089631971 0.0 0.0 0.0 34.24959146834617" Properties=species:S:1:pos:R:3:initial_magmoms:R:1 pbc="T T T"
Si       1.35711990       1.35508588       1.35659283       0.00000000
Si      -1.35830907      -1.35936799       1.35631883       0.00000000
Si      -1.35992178       1.35355625      -1.36056578       0.00000000
Si       1.35809730      -1.35923767      -1.36214126       0.00000000
Si      -2.71370223       2.71297630      -0.00054799       0.00000000
Si      -0.00100998       2.71331839       2.71462414       0.00000000
Si       2.71459818      -0.00234343       2.71428164       0.00000000
Si       2.71603170       2.71318807       0.00041100       0.00000000
Si      -2.71596654      -0.00220718       2.71452139       0.00000000
Si      -0.00083079      -2.71717207       2.71414464       0.00000000
