10
Lattice="16.28999089631971 0.0 0.0 0.0 16.28999089631971 0.0 0.0 0.0 34.24959146834617" Properties=species:S:1:pos:R:3:initial_magmoms:R:1 pbc="T T T"
Si      -1.35746199      -1.35679736       1.35631883       0.00000000
Si      -1.35762489       1.35757602      -1.35762031       0.00000000
Si       1.35817875       1.35790182       1.35710657       0.00000000
Si       1.35812988      -1.35823251      -1.35803131       0.00000000
Si      -2.71269225      -0.00034209      -2.71517213       0.00000000
Si       0.00100998      -2.71331839      -2.71462414       0.00000000
Si      -2.71210581      -0.00495216       2.71626812       0.00000000
Si      -2.71433754       2.71423980      -0.00030825       0.00000000
Si      -0.00249237       2.71336014       2.71530913       0.00000000
Si       2.71254564       0.00557118       2.71671336       0.00000000
