10
Lattice="16.28999089631971 0.0 0.0 0.0 16.28999089631971 0.0 0.0 0.0 34.24959146834617" Properties=species:S:1:pos:R:3:initial_magmoms:R:1 pbc="T T T"
Si       1.47696543      -1.30263311       1.28853885       0.00000000
Si      -1.35097857      -1.36721869      -1.38207454       0.00000000
Si       1.36549296       1.35214656      -1.38594474       0.00000000
Si      -1.33968960       1.41887040       1.63747388       0.00000000
Si      -2.69162928       2.70007890      -0.00609643       0.00000000
Si       2.70023040       2.71962690      -0.01147362       0.00000000
Si      -2.71220355      -2.71498492       0.00215773       0.00000000
Si       0.01112607       2.70447720      -2.74555154       0.00000000
Si      -2.70451467      -0.01022198      -2.74633928       0.00000000
Si       2.72699487      -0.01103485      -2.74500354       0.00000000
