10
Lattice="16.28999089631971 0.0 0.0 0.0 16.28999089631971 0.0 0.0 0.0 34.24959146834617" Properties=species:S:1:pos:R:3:initial_magmoms:R:1 pbc="T T T"
Si      -1.35422028       1.35871632      -1.35881905       0.00000000
Si       1.36067112      -1.35545832      -1.35820256       0.00000000
Si       1.37463165       1.34091135       1.36611422       0.00000000
Si      -1.34208423      -1.35985662       1.38125255       0.00000000
Si       2.71503801      -2.70778896       0.00140423       0.00000000
Si      -2.71184517       0.00087966      -2.71561738       0.00000000
Si      -2.70961344      -2.71831230       0.00095899       0.00000000
Si       0.00249237      -2.71336014      -2.71530913       0.00000000
Si       0.00272043       2.71612944      -2.71551463       0.00000000
Si       2.71746522       0.00114030      -2.71541188       0.00000000
