10
Lattice="16.28999089631971 0.0 0.0 0.0 16.28999089631971 0.0 0.0 0.0 34.24959146834617" Properties=species:S:1:pos:R:3:initial_magmoms:R:1 pbc="T T T"
Si       1.43081586       1.90749384      -0.69800706       0.00000000
Si      -1.44715473       0.79739550      -1.85749338       0.00000000
Si       1.10211624      -1.74581559      -1.42495505       0.00000000
Si      -1.24341570      -1.09687086       1.88848928       0.00000000
Si       2.30457888       0.90978021       1.25644697       0.00000000
Si      -0.05585841       3.25578456       1.04262665       0.00000000
Si       1.75992273      -3.05114958       0.81514073       0.00000000
Si      -0.32886252      -3.22802640       1.89681193       0.00000000
Si      -0.27403038      -0.06413373       3.74944187       0.00000000
Si       2.00476143      -0.22071321       3.21110649       0.00000000
