10
Lattice="16.28999089631971 0.0 0.0 0.0 16.28999089631971 0.0 0.0 0.0 34.24959146834617" Properties=species:S:1:pos:R:3:initial_magmoms:R:1 pbc="T T T"
Si      -1.81921833      -0.51699573       1.44392933       0.00000000
Si      -0.05861142      -1.94549841      -1.52284044       0.00000000
Si       1.96532334      -0.20080683       1.49633124       0.00000000
Si      -0.69193404       2.37698793      -0.63635777       0.00000000
Si      -0.73744830      -2.85334011       1.86958349       0.00000000
Si      -1.13212242       3.07304334       1.64524854       0.00000000
Si       0.90544707      -1.66374657       3.15356171       0.00000000
Si       1.85629437      -1.64908557      -2.89854455       0.00000000
Si      -1.77935670       1.11858543       3.20830286       0.00000000
Si       0.01853802      -3.98290500      -0.22830790       0.00000000
