10
Lattice="16.28999089631971 0.0 0.0 0.0 16.28999089631971 0.0 0.0 0.0 34.24959146834617" Properties=species:S:1:pos:R:3:initial_magmoms:R:1 pbc="T T T"
Si       1.35391077       1.34400645       1.36912818       0.00000000
Si       1.35498591      -1.35597960      -1.35649008       0.00000000
Si      -1.35759231       1.35648459      -1.35703807       0.00000000
Si      -1.34757396      -1.36943514       1.36351125       0.00000000
Si      -2.61316035       0.03064149       2.75719640       0.00000000
Si       2.71202436       2.71577106       0.00280847       0.00000000
Si       2.71428867       0.00027693      -2.71428164       0.00000000
Si      -2.71743264      -2.71114470       0.00321946       0.00000000
Si      -0.00086337      -2.71456560      -2.71411039       0.00000000
Si      -0.00091224       2.71544526      -2.71438439       0.00000000
