10
Lattice="16.28999089631971 0.0 0.0 0.0 16.28999089631971 0.0 0.0 0.0 34.24959146834617" Properties=species:S:1:pos:R:3:initial_magmoms:R:1 pbc="T T T"
Si       1.35759231      -1.35648459       1.35703807       0.00000000
Si      -1.35843939      -1.35586557      -1.35700382       0.00000000
Si       1.35668007       1.35896067      -1.35734632       0.00000000
Si      -1.35944937       1.36155078       1.36275776       0.00000000
Si       2.71257822      -2.71246419       0.00054799       0.00000000
Si      -0.00086337      -2.71371852      -2.71476114       0.00000000
Si       2.71451673       0.00182448      -2.71448714       0.00000000
Si      -2.71593396      -2.71371852       0.00034250       0.00000000
Si      -2.71604799       0.00138465      -2.71479538       0.00000000
Si       2.71508688       2.71619460       0.00017125       0.00000000
