10
Lattice="16.28999089631971 0.0 0.0 0.0 16.28999089631971 0.0 0.0 0.0 34.24959146834617" Properties=species:S:1:pos:R:3:initial_magmoms:R:1 pbc="T T T"
Si      -0.38851650       0.84709629      -2.12559933       0.00000000
Si       2.09675106      -1.03579965       0.06774573       0.00000000
Si      -1.58289930      -1.63937673       0.56330335       0.00000000
Si       0.15959313       2.20384152       0.97244919       0.00000000
Si       2.74248666      -0.53364411       2.30849225       0.00000000
Si       0.59997699      -0.87493590       3.57884456       0.00000000
Si      -3.68189838      -0.44088885       0.63022708       0.00000000
Si      -0.83673585      -2.54765826       2.66900366       0.00000000
Si       0.97593390       2.60649774      -2.59601774       0.00000000
Si       3.53794365       0.03220533      -1.46660258       0.00000000
