10
Lattice="16.28999089631971 0.0 0.0 0.0 16.28999089631971 0.0 0.0 0.0 34.24959146834617" Properties=species:S:1:pos:R:3:initial_magmoms:R:1 pbc="T T T"
Si       0.19797237       0.04357575       2.34979728       0.00000000
Si       1.47719349       1.43154891      -1.17017220       0.00000000
Si       0.83461815      -2.12959170      -0.61371877       0.00000000
Si      -2.13239358       0.80624097      -0.81911369       0.00000000
Si       0.39423429       0.94918572      -3.22011414       0.00000000
Si      -0.02296890       2.42235558       2.65961926       0.00000000
Si      -1.55362617       2.13019443      -2.68321724       0.00000000
Si       3.62007783       0.47915406      -1.32285696       0.00000000
Si       2.97712782      -1.78829991      -1.88407108       0.00000000
Si      -3.11938839       2.38765788       0.58285987       0.00000000
