10
Lattice="16.28999089631971 0.0 0.0 0.0 16.28999089631971 0.0 0.0 0.0 34.24959146834617" Properties=species:S:1:pos:R:3:initial_magmoms:R:1 pbc="T T T"
Si       1.56397032      -1.54735452       0.90371023       0.00000000
Si      -0.40206978       0.90259699       2.16683586       0.00000000
Si      -1.82060298      -1.60694334       0.19285956       0.00000000
Si       0.63047187       1.51917838      -1.85447942       0.00000000
Si       0.67870656      -1.11584871       3.13339413       0.00000000
Si       2.43680481       2.70385397      -0.81031154       0.00000000
Si      -3.24234531      -1.13595057      -1.58842844       0.00000000
Si       1.16488161      -3.60637794      -0.03685258       0.00000000
Si      -1.48543623       2.54145896      -2.46597196       0.00000000
Si       1.38518757       0.12399948      -3.65528969       0.00000000
