10
Lattice="16.28999089631971 0.0 0.0 0.0 16.28999089631971 0.0 0.0 0.0 34.24959146834617" Properties=species:S:1:pos:R:3:initial_magmoms:R:1 pbc="T T T"
Si       1.35705474       1.35134223       1.37908112       0.00000000
Si      -1.35720135      -1.36455494       1.37349843       0.00000000
Si       1.37103156      -1.39829153      -1.35139031       0.00000000
Si      -1.31147532       1.24776715      -1.59681275       0.00000000
Si      -1.96555140      -0.75224642      -3.07451360       0.00000000
Si       0.37110249       2.45589708      -2.79959198       0.00000000
Si      -0.11652237      -2.42597876      -2.88596950       0.00000000
Si      -2.70721881       2.70251139      -0.01913868       0.00000000
Si       2.71658253       2.69703795       0.00955222       0.00000000
Si       0.00073305       2.70787080       2.73605069       0.00000000
