10
Lattice="16.28999089631971 0.0 0.0 0.0 16.28999089631971 0.0 0.0 0.0 34.24959146834617" Properties=species:S:1:pos:R:3:initial_magmoms:R:1 pbc="T T T"
Si      -1.23507522       1.41103980      -1.39036294       0.00000000
Si       1.51117836      -1.31176202      -1.38577349       0.00000000
Si       1.28630305       1.43723412       1.50263317       0.00000000
Si      -1.35948195      -1.43184702       1.61736936       0.00000000
Si       1.90966760      -0.59126184       2.85902050       0.00000000
Si      -2.45834019      -2.61122021      -0.09035047       0.00000000
Si       0.43032546      -2.52417443       2.58879107       0.00000000
Si      -2.56981266       0.04355946      -2.76483407       0.00000000
Si      -2.67514380       2.76775245       0.20666215       0.00000000
Si       0.15069879      -2.68235032      -2.76730004       0.00000000
