10
Lattice="16.28999089631971 0.0 0.0 0.0 16.28999089631971 0.0 0.0 0.0 34.24959146834617" Properties=species:S:1:pos:R:3:initial_magmoms:R:1 pbc="T T T"
Si       1.36336941       0.23908833       1.87461819       0.00000000
Si       1.37392371      -1.68827931      -0.85449354       0.00000000
Si      -0.22942836       2.02680180      -1.17965934       0.00000000
Si      -2.25531792      -0.54867978       0.42058522       0.00000000
Si       0.95635725      -1.90835721       2.67763456       0.00000000
Si      -2.91612177       1.71760131       0.53268419       0.00000000
Si       0.22858128       1.94626404       2.96844800       0.00000000
Si       3.55078736      -0.72580095      -0.72300928       0.00000000
Si       1.41263200      -3.34512706       0.84528039       0.00000000
Si      -1.33722981       3.15128421       1.63466542       0.00000000
