10
Lattice="16.28999089631971 0.0 0.0 0.0 16.28999089631971 0.0 0.0 0.0 34.24959146834617" Properties=species:S:1:pos:R:3:initial_magmoms:R:1 pbc="T T T"
Si       1.36023129       1.34796492       1.37738919       0.00000000
Si      -1.35220032      -1.37194380       1.37547121       0.00000000
Si       1.45805274      -1.33828866      -1.39671282       0.00000000
Si      -1.40629941       1.41682275      -1.39261999       0.00000000
Si       2.71634121       2.70461241      -0.00803153       0.00000000
Si      -2.70254358      -2.73036690      -0.01678916       0.00000000
Si       0.00405621       2.70379791       2.73689323       0.00000000
Si      -2.73561228       2.70596448       0.01763855       0.00000000
Si      -2.71150308      -0.00754227       2.73774947       0.00000000
Si       2.71839375      -0.01088172       2.73651649       0.00000000
