10
Lattice="16.28999089631971 0.0 0.0 0.0 16.28999089631971 0.0 0.0 0.0 34.24959146834617" Properties=species:S:1:pos:R:3:initial_magmoms:R:1 pbc="T T T"
Si      -1.35739683      -1.35459495      -1.35741482       0.00000000
Si      -1.35729909       1.35755973       1.35724357       0.00000000
Si       1.35744570      -1.35742941       1.35734632       0.00000000
Si       1.35816246       1.35674523      -1.35827106       0.00000000
Si      -2.71423980       0.00014661       2.71393914       0.00000000
Si       0.00065160      -2.71402803       2.71455564       0.00000000
Si      -2.71609686       0.00013032      -2.71301441       0.00000000
Si      -2.71515204      -2.71435383      -0.00017125       0.00000000
Si      -2.71489140       2.71489140      -0.00044524       0.00000000
Si       2.71567332      -0.00086337       2.71428164       0.00000000
