10
Lattice="16.28999089631971 0.0 0.0 0.0 16.28999089631971 0.0 0.0 0.0 34.24959146834617" Properties=species:S:1:pos:R:3:initial_magmoms:R:1 pbc="T T T"
Si       0.87376302      -0.99771363       1.95445403       0.00000000
Si      -0.60369111       1.95787881      -1.18979722       0.00000000
Si      -1.43081586      -1.90749384       0.69800706       0.00000000
Si       2.11478409      -0.61600635      -1.32131573       0.00000000
Si      -1.48667427       1.34829072       1.74063371       0.00000000
Si       0.88593165       1.37549502       2.51542840       0.00000000
Si      -1.60850718       0.30314061      -2.63838450       0.00000000
Si      -2.87797059      -1.11009834      -1.15948632       0.00000000
Si       0.95508270      -2.37767211      -2.42189271       0.00000000
Si      -0.32869962      -3.65330943      -0.72694799       0.00000000
