10
Lattice="16.28999089631971 0.0 0.0 0.0 16.28999089631971 0.0 0.0 0.0 34.24959146834617" Properties=species:S:1:pos:R:3:initial_magmoms:R:1 pbc="T T T"
Si       1.13478813      -1.70717571      -1.09382981       0.00000000
Si       1.88979380       1.35031068       0.29067645       0.00000000
Si      -1.56581109       1.20502017      -1.33378259       0.00000000
Si      -0.96865227      -0.57539538       2.16012294       0.00000000
Si      -2.20804434      -1.31310432       0.26670172       0.00000000
Si       0.72953855       3.31879428       0.25043315       0.00000000
Si       2.63654369       0.33075216       2.28242830       0.00000000
Si      -0.22858128      -1.94626404      -2.96844800       0.00000000
Si      -1.34043894       1.55589048       2.96786576       0.00000000
Si      -0.06587676       3.15042084      -1.95835848       0.00000000
