10
Lattice="16.28999089631971 0.0 0.0 0.0 16.28999089631971 0.0 0.0 0.0 34.24959146834617" Properties=species:S:1:pos:R:3:initial_magmoms:R:1 pbc="T T T"
Si      -0.37178667       2.13128586       0.80774282       0.00000000
Si       1.01408508      -1.71374058       1.27031806       0.00000000
Si      -1.23939207      -0.73770894      -1.89342122       0.00000000
Si       0.96865227       0.57539538      -2.16012294       0.00000000
Si      -2.90167254      -1.05358833       1.34217374       0.00000000
Si      -3.29929515      -0.27313443      -0.86829613       0.00000000
Si       3.22943453      -1.40830308       0.64954387       0.00000000
Si      -0.63379503      -3.01355226      -1.83529963       0.00000000
Si      -0.09153351      -3.57485679       0.38321889       0.00000000
Si      -2.17175022       0.68176908       2.78966503       0.00000000
