10
Lattice="16.28999089631971 0.0 0.0 0.0 16.28999089631971 0.0 0.0 0.0 34.24959146834617" Properties=species:S:1:pos:R:3:initial_magmoms:R:1 pbc="T T T"
Si       1.35848737       1.33379262       1.36762120       0.00000000
Si      -1.35775677       1.35521397      -1.35871630       0.00000000
Si       1.35745296      -1.35812988      -1.35936705       0.00000000
Si      -1.38367416      -1.34280099       1.37563561       0.00000000
Si      -0.02083647       2.73162123       2.64513168       0.00000000
Si       2.71103630      -2.71534752       0.00215773       0.00000000
Si      -2.71451829       2.71199178       0.00212348       0.00000000
Si      -2.71841160      -2.71028133       0.00116449       0.00000000
Si       2.71523912       2.71357191       0.00037675       0.00000000
Si      -0.00034363       2.71350675      -2.71595987       0.00000000
