10
Lattice="16.28999089631971 0.0 0.0 0.0 16.28999089631971 0.0 0.0 0.0 34.24959146834617" Properties=species:S:1:pos:R:3:initial_magmoms:R:1 pbc="T T T"
Si       2.13042249      -0.09306477       0.93802834       0.00000000
Si      -0.72992232      -1.73535741      -1.44749129       0.00000000
Si      -1.61135793       0.40505085       1.70532236       0.00000000
Si      -0.59673528       1.95237279      -1.25504273       0.00000000
Si       1.79996355       1.44951678      -1.98192222       0.00000000
Si      -2.73924495       1.61108100       0.01530958       0.00000000
Si      -2.46871692      -1.78639398       1.83488864       0.00000000
Si      -2.86490601      -2.06581635      -0.53682840       0.00000000
Si       2.17175022      -0.68176908      -2.78966503       0.00000000
Si       1.83710475       1.21709106       2.86069873       0.00000000
