10
Lattice="16.28999089631971 0.0 0.0 0.0 16.28999089631971 0.0 0.0 0.0 34.24959146834617" Properties=species:S:1:pos:R:3:initial_magmoms:R:1 pbc="T T T"
Si       0.57521849       2.22633801      -0.08264431       0.00000000
Si       1.24888818      -0.93050109      -1.89999715       0.00000000
Si      -2.40837876      -0.55143279       0.21289558       0.00000000
Si       0.87315607       0.52002567       2.32869952       0.00000000
Si      -1.18545588       2.95889931      -1.44112087       0.00000000
Si      -0.36606888      -0.57748050      -3.51609927       0.00000000
Si      -2.16552744      -1.82456145       2.29314843       0.00000000
Si       2.55924764      -1.36562328       2.24876093       0.00000000
Si      -3.32210115       1.59070221       0.88682517       0.00000000
Si      -0.89213814       1.64874348      -3.36379126       0.00000000
