10
Lattice="16.28999089631971 0.0 0.0 0.0 16.28999089631971 0.0 0.0 0.0 34.24959146834617" Properties=species:S:1:pos:R:3:initial_magmoms:R:1 pbc="T T T"
Si      -1.35498591       1.35597960       1.35649008       0.00000000
Si      -1.35584928      -1.35858600      -1.35762031       0.00000000
Si       1.35930276       1.35625653      -1.35779156       0.00000000
Si       1.36036161      -1.36023129       1.36025753       0.00000000
Si      -2.70255987      -0.01345554       2.72000133       0.00000000
Si      -2.71257822       2.71246419      -0.00054799       0.00000000
Si      -0.00107514       2.69998605       2.72561826       0.00000000
Si       2.70822879       0.02259423       2.71931633       0.00000000
Si      -2.71344159      -0.00125433      -2.71530913       0.00000000
Si      -2.71278999      -2.71599912      -0.00092474       0.00000000
