10
Lattice="16.28999089631971 0.0 0.0 0.0 16.28999089631971 0.0 0.0 0.0 34.24959146834617" Properties=species:S:1:pos:R:3:initial_magmoms:R:1 pbc="T T T"
Si      -1.36365219      -1.33791399       1.36234676       0.00000000
Si      -1.35487188       1.35399222      -1.35772306       0.00000000
Si       1.34813826       1.34089506       1.37923182       0.00000000
Si       1.35895971      -1.36225125      -1.35642158       0.00000000
Si      -0.01783755      -2.70111006       2.64629616       0.00000000
Si       2.62154060      -0.09689292       2.77956140       0.00000000
Si       0.00264961       2.71098180      -2.71482963       0.00000000
Si      -2.71484253       2.71124244       0.00232897       0.00000000
Si      -2.71257822      -0.00425169      -2.71476114       0.00000000
Si       2.71724435      -0.00408879      -2.71452139       0.00000000
