10
Lattice="16.28999089631971 0.0 0.0 0.0 16.28999089631971 0.0 0.0 0.0 34.24959146834617" Properties=species:S:1:pos:R:3:initial_magmoms:R:1 pbc="T T T"
Si       0.93178704      -1.18482057      -1.79550159       0.00000000
Si       0.79541531       0.16837344       2.20879164       0.00000000
Si       0.42475916       2.05506495      -1.13527184       0.00000000
Si      -1.49993433      -1.94540067       0.62457590       0.00000000
Si      -2.76684021       0.12461850      -1.87109048       0.00000000
Si      -1.03280229       1.46430810      -2.88333772       0.00000000
Si      -2.87580402      -0.52582491       1.87800890       0.00000000
Si       1.95567056      -1.80011016       2.24903493       0.00000000
Si      -3.35681514       1.08675477       0.20258645       0.00000000
Si      -1.18042227       0.06607224       3.33618607       0.00000000
