10
Lattice="16.28999089631971 0.0 0.0 0.0 16.28999089631971 0.0 0.0 0.0 34.24959146834617" Properties=species:S:1:pos:R:3:initial_magmoms:R:1 pbc="T T T"
Si       1.81229508       0.78499881      -1.33278935       0.00000000
Si      -1.85046255       1.56467079      -0.17570050       0.00000000
Si       0.79353477       0.88598052       2.21019587       0.00000000
Si      -0.86071473      -1.99322811      -1.28477139       0.00000000
Si       0.07726347      -2.26826847       2.59392851       0.00000000
Si       0.52225740       2.09025135      -2.83165506       0.00000000
Si      -2.18964316      -0.65399463      -2.83117556       0.00000000
Si      -0.92958885       3.34805112      -1.42039985       0.00000000
Si      -3.48489608      -1.17967293       1.15993156       0.00000000
Si      -0.53708130      -0.22442733       3.82698299       0.00000000
