10
Lattice="16.28999089631971 0.0 0.0 0.0 16.28999089631971 0.0 0.0 0.0 34.24959146834617" Properties=species:S:1:pos:R:3:initial_magmoms:R:1 pbc="T T T"
Si      -1.65382596      -1.38236940       1.02601559       0.00000000
Si       1.89351702      -0.18111222       1.51486028       0.00000000
Si       0.88526376      -0.43150581      -2.22968390       0.00000000
Si      -1.08077634       2.01844570      -0.96655826       0.00000000
Si      -0.67870656       1.11584871      -3.13339413       0.00000000
Si       0.44984835       3.62526524      -0.34551007       0.00000000
Si      -3.66658578      -0.16099407       1.07238956       0.00000000
Si      -2.49930954      -0.49109463      -2.94053457       0.00000000
Si      -1.34035749      -1.68868656       3.35858532       0.00000000
Si       1.20249522       0.38299419       3.82153730       0.00000000
