10
Lattice="16.28999089631971 0.0 0.0 0.0 16.28999089631971 0.0 0.0 0.0 34.24959146834617" Properties=species:S:1:pos:R:3:initial_magmoms:R:1 pbc="T T T"
Si      -1.32892843       1.33923348      -1.54640417       0.00000000
Si      -1.54971168      -1.31116581       1.35460635       0.00000000
Si       1.37919285      -1.34503272      -1.52345693       0.00000000
Si       0.86071473       1.99322811       1.28477139       0.00000000
Si      -2.62418135       0.81355518       2.44470296       0.00000000
Si       2.67300981       2.77822692      -0.04801795       0.00000000
Si      -0.98974782       3.55789890       1.10907089       0.00000000
Si      -2.70825227       2.73706209      -0.26889369       0.00000000
Si       2.82193299      -2.65805559      -0.10007736       0.00000000
Si      -2.83601474      -2.74839993      -0.14802682       0.00000000
