10
Lattice="16.28999089631971 0.0 0.0 0.0 16.28999089631971 0.0 0.0 0.0 34.24959146834617" Properties=species:S:1:pos:R:3:initial_magmoms:R:1 pbc="T T T"
Si      -1.97583758      -0.10230120       1.12739443       0.00000000
Si       1.16025525      -1.96848360       0.04024329       0.00000000
Si       1.33395552       1.81889253       0.39239779       0.00000000
Si      -0.79541531      -0.16837344      -2.20879164       0.00000000
Si       3.07089306       0.94581369      -1.00385609       0.00000000
Si      -0.72953855      -3.31879428      -0.25043315       0.00000000
Si      -2.29534964      -2.11377411      -1.58421574       0.00000000
Si       2.78542710      -1.44127404      -1.65665367       0.00000000
Si      -3.67121933      -0.69419835      -0.33078274       0.00000000
Si      -2.32820657       1.80359622       2.34459134       0.00000000
