10
Lattice="16.28999089631971 0.0 0.0 0.0 16.28999089631971 0.0 0.0 0.0 34.24959146834617" Properties=species:S:1:pos:R:3:initial_magmoms:R:1 pbc="T T T"
Si       0.94042822       1.76021499       1.23591330       0.00000000
Si      -1.78258605      -0.92181852       1.27428313       0.00000000
Si       1.78866155      -1.78285905      -0.24121902       0.00000000
Si      -0.44063801      -2.26061217       2.64502448       0.00000000
Si       2.29083338       0.46638270       2.64305855       0.00000000
Si      -3.27013998      -1.94950575      -0.26029605       0.00000000
Si       0.61783897      -2.95562502      -2.33832268       0.00000000
Si       0.86937612      -3.58073748       1.17850067       0.00000000
Si       3.56342447      -0.92905128       1.21880904       0.00000000
Si       1.94225996       3.39130826      -0.21830603       0.00000000
