10
Lattice="16.28999089631971 0.0 0.0 0.0 16.28999089631971 0.0 0.0 0.0 34.24959146834617" Properties=species:S:1:pos:R:3:initial_magmoms:R:1 pbc="T T T"
Si      -1.12629060       1.51256415       1.36303175       0.00000000
Si      -1.37580453      -1.33807689      -1.36183302       0.00000000
Si       1.34006427       1.37149886      -1.36710746       0.00000000
Si       1.40139612      -1.38064266       1.60003906       0.00000000
Si       2.21328972       0.50081976       2.82350365       0.00000000
Si      -2.61267979       0.16066827       2.55508945       0.00000000
Si       0.58303539       2.40751443       2.89148913       0.00000000
Si       2.70024669      -2.69496873       0.01575482       0.00000000
Si       2.69594613       0.01874979      -2.72411128       0.00000000
Si      -0.01896156      -2.69840592      -2.72400853       0.00000000
