10
Lattice="16.28999089631971 0.0 0.0 0.0 16.28999089631971 0.0 0.0 0.0 34.24959146834617" Properties=species:S:1:pos:R:3:initial_magmoms:R:1 pbc="T T T"
Si      -1.35305296       1.35192424       1.35823681       0.00000000
Si      -1.35550212      -1.35816246      -1.35645583       0.00000000
Si       1.35956503       1.35625454      -1.35652433       0.00000000
Si       1.36057501      -1.35555606       1.36289475       0.00000000
Si      -2.69143936      -0.00374670       2.70229428       0.00000000
Si      -2.71206250       2.71465261       0.00164398       0.00000000
Si      -2.71361005      -0.00065160      -2.71345965       0.00000000
Si       0.00148402       2.71430726      -2.71376790       0.00000000
Si      -2.71302361      -2.71515204       0.00065074       0.00000000
Si       0.00145144      -2.71562445      -2.71352815       0.00000000
