10
Lattice="10.86 0.0 0.0 0.0 10.86 0.0 0.0 0.0 10.86" Properties=species:S:1:pos:R:3:initial_magmoms:R:1 pbc="T T T"
Si       1.29533736      -1.29533736      -1.26212748       0.00000000
Si      -1.50168822       1.50168822      -1.34362092       0.00000000
Si       2.66205750       0.05294250      -2.64869970       0.00000000
Si      -0.05294250      -2.66205750      -2.64869970       0.00000000
Si       2.66205750      -2.66205750       0.06630030       0.00000000
Si      -0.05294250       2.76794250      -2.64869970       0.00000000
Si      -2.76794250       0.05294250      -2.64869970       0.00000000
Si       2.66205750       2.76794250       0.06630030       0.00000000
Si      -2.76794250      -2.66205750       0.06630030       0.00000000
Si       2.66205750       0.05294250       2.78130030       0.00000000
