10
Lattice="10.86 0.0 0.0 0.0 10.86 0.0 0.0 0.0 10.86" Properties=species:S:1:pos:R:3:initial_magmoms:R:1 pbc="T T T"
Si       1.29328482       1.26244242       1.38634416       0.00000000
Si       1.29328482      -1.45255758      -1.32865584       0.00000000
Si      -1.58112912       0.92959428      -1.53352974       0.00000000
Si      -1.42171518      -1.45255758       1.38634416       0.00000000
Si      -2.73205020       2.41427574       0.08235138       0.00000000
Si       2.66181858       2.62329816       0.01838598       0.00000000
Si      -0.06421518       2.61994242       2.74384416       0.00000000
Si       2.65078482      -0.09505758       2.74384416       0.00000000
Si       2.65917960      -0.14469864      -2.76555330       0.00000000
Si       2.65078482      -2.81005758       0.02884416       0.00000000
