10
Lattice="10.86 0.0 0.0 0.0 10.86 0.0 0.0 0.0 10.86" Properties=species:S:1:pos:R:3:initial_magmoms:R:1 pbc="T T T"
Si       1.29353460      -1.28388006      -1.34252406       0.00000000
Si      -1.42146540      -1.28388006       1.37247594       0.00000000
Si      -1.42146540       1.43111994      -1.34252406       0.00000000
Si       1.47068292       1.11397536       1.69109748       0.00000000
Si       2.40041838       2.64284616       0.04237572       0.00000000
Si       2.83574148      -2.46182082       0.06683244       0.00000000
Si      -0.06396540      -2.64138006      -2.70002406       0.00000000
Si       2.65103460       0.07361994      -2.70002406       0.00000000
Si       0.12119760       2.67666420       2.68187700       0.00000000
Si      -0.17583426      -2.81304408       2.54560572       0.00000000
