10
Lattice="10.86 0.0 0.0 0.0 10.86 0.0 0.0 0.0 10.86" Properties=species:S:1:pos:R:3:initial_magmoms:R:1 pbc="T T T"
Si       1.34646624      -1.36085574      -1.34704182       0.00000000
Si       1.34646624       1.35414426       1.36795818       0.00000000
Si      -1.36853376      -1.36085574       1.36795818       0.00000000
Si      -2.66181858      -2.62329816      -0.01838598       0.00000000
Si      -2.74565778       2.59883058       0.17712660       0.00000000
Si       2.70396624      -0.00335574      -2.70454182       0.00000000
Si       2.70396624       2.71164426       0.01045818       0.00000000
Si       2.70396624      -2.71835574       0.01045818       0.00000000
Si       2.70396624      -0.00335574       2.72545818       0.00000000
Si      -0.01103376       2.71164426       2.72545818       0.00000000
