10
Lattice="10.86 0.0 0.0 0.0 10.86 0.0 0.0 0.0 10.86" Properties=species:S:1:pos:R:3:initial_magmoms:R:1 pbc="T T T"
Si       1.17279312      -1.53705924      -1.40935650       0.00000000
Si      -1.54220688       1.17794076      -1.40935650       0.00000000
Si      -1.54220688      -1.53705924       1.30564350       0.00000000
Si       2.57485170       2.53167234       0.28556370       0.00000000
Si       2.53868790      -0.22920030       2.58374604       0.00000000
Si       2.53029312      -0.17955924      -2.76685650       0.00000000
Si      -2.83574148       2.46182082      -0.06683244       0.00000000
Si      -0.18470688       2.53544076      -2.76685650       0.00000000
Si       2.53029312      -2.89455924      -0.05185650       0.00000000
Si      -3.01157574      -0.35122326       2.47877328       0.00000000
