10
Lattice="10.86 0.0 0.0 0.0 10.86 0.0 0.0 0.0 10.86" Properties=species:S:1:pos:R:3:initial_magmoms:R:1 pbc="T T T"
Si       1.27129332      -1.27129332       1.21109634       0.00000000
Si      -1.39927842      -1.31572158      -1.37960010       0.00000000
Si       1.31572158       1.39927842      -1.37960010       0.00000000
Si      -1.39927842       1.39927842       1.33539990       0.00000000
Si      -0.04177842      -2.67322158      -2.73710010       0.00000000
Si       2.67322158       0.04177842      -2.73710010       0.00000000
Si       2.70618168      -2.70618168      -0.09783774       0.00000000
Si       2.67322158       2.75677842      -0.02210010       0.00000000
Si      -2.75677842      -2.67322158      -0.02210010       0.00000000
Si      -2.75677842       0.04177842       2.69289990       0.00000000
