10
Lattice="10.86 0.0 0.0 0.0 10.86 0.0 0.0 0.0 10.86" Properties=species:S:1:pos:R:3:initial_magmoms:R:1 pbc="T T T"
Si      -1.27129332       1.27129332      -1.21109634       0.00000000
Si       1.43488836      -1.43488836      -1.30893408       0.00000000
Si       0.04442826       2.67057174      -2.59069644       0.00000000
Si      -2.67057174      -0.04442826      -2.59069644       0.00000000
Si      -2.67057174       2.67057174       0.12430356       0.00000000
Si       2.75942826      -0.04442826      -2.59069644       0.00000000
Si       0.04442826      -2.75942826      -2.59069644       0.00000000
Si      -2.67057174      -2.75942826       0.12430356       0.00000000
Si       2.75942826       2.67057174       0.12430356       0.00000000
Si      -2.67057174      -0.04442826       2.83930356       0.00000000
