10
Lattice="10.86 0.0 0.0 0.0 10.86 0.0 0.0 0.0 10.86" Properties=species:S:1:pos:R:3:initial_magmoms:R:1 pbc="T T T"
Si      -1.14169008      -1.56001728       1.50003750       0.00000000
Si       1.57330992       1.15498272       1.50003750       0.00000000
Si       1.57330992      -1.56001728      -1.21496250       0.00000000
Si       0.04979310       2.40750996      -2.62881504       0.00000000
Si      -2.55987576       2.51576244       0.14785890       0.00000000
Si       0.11061996      -2.43748356      -2.74458264       0.00000000
Si      -2.49919008      -0.20251728       2.85753750       0.00000000
Si       0.21580992       2.51248272       2.85753750       0.00000000
Si      -2.67829320      -2.72681568       0.08913888       0.00000000
Si       2.93080992       2.51248272       0.14253750       0.00000000
