10
Lattice="10.86 0.0 0.0 0.0 10.86 0.0 0.0 0.0 10.86" Properties=species:S:1:pos:R:3:initial_magmoms:R:1 pbc="T T T"
Si       2.10180096       0.64266222      -0.57963078       0.00000000
Si      -0.74355162       0.62611158       2.18477136       0.00000000
Si      -0.66428448      -2.14366626      -0.88782672       0.00000000
Si      -1.97719332       2.01893916       0.67184304       0.00000000
Si      -1.97719332      -0.69606084      -2.04315696       0.00000000
Si       0.73780668       2.01893916      -2.04315696       0.00000000
Si      -3.33469332       0.66143916      -0.68565696       0.00000000
Si      -0.61969332       3.37643916      -0.68565696       0.00000000
Si      -0.61969332       0.66143916      -3.40065696       0.00000000
Si      -1.97719332      -0.69606084       3.38684304       0.00000000
