10
Lattice="10.86 0.0 0.0 0.0 10.86 0.0 0.0 0.0 10.86" Properties=species:S:1:pos:R:3:initial_magmoms:R:1 pbc="T T T"
Si       0.79551672      -1.87440342      -0.78449382       0.00000000
Si      -1.91948328       0.84059658      -0.78449382       0.00000000
Si       0.79551672       0.84059658       1.93050618       0.00000000
Si       2.15301672      -0.51690342      -2.14199382       0.00000000
Si      -0.56198328       2.19809658      -2.14199382       0.00000000
Si       2.15301672       2.19809658       0.57300618       0.00000000
Si       0.79551672       0.84059658      -3.49949382       0.00000000
Si       3.51051672       0.84059658      -0.78449382       0.00000000
Si       0.79551672       3.55559658      -0.78449382       0.00000000
Si      -0.56198328      -3.23190342      -2.14199382       0.00000000
