10
Lattice="10.86 0.0 0.0 0.0 10.86 0.0 0.0 0.0 10.86" Properties=species:S:1:pos:R:3:initial_magmoms:R:1 pbc="T T T"
Si       1.13236134       1.52617752       1.36880526       0.00000000
Si      -1.58263866      -1.18882248       1.36880526       0.00000000
Si      -1.58263866       1.52617752      -1.34619474       0.00000000
Si       2.40594612      -2.33724576      -0.02297976       0.00000000
Si       0.71099334      -2.79092226      -1.94819712       0.00000000
Si       2.48986134       0.16867752       2.72630526       0.00000000
Si      -0.22513866      -2.54632248       2.72630526       0.00000000
Si       2.39236026       2.94319032       0.00705900       0.00000000
Si      -0.32973132       2.76283830      -2.71633578       0.00000000
Si      -2.94013866      -2.54632248       0.01130526       0.00000000
