10
Lattice="16.290000149 0.0 0.0 0.0 16.290000149 0.0 0.0 0.0 29.1751946751" Properties=species:S:1:pos:R:3:initial_magmoms:R:1 pbc="T T T"
Si      -1.33553566      -1.36348442       1.36890013       0.00000000
Si       1.34977312      -1.35051106      -1.37280961       0.00000000
Si       1.35928648       1.34631964       1.36817075       0.00000000
Si      -1.36899532       1.34410420      -1.36388200       0.00000000
Si      -2.69677694      -2.70697448      -0.00848998       0.00000000
Si       2.71288775       2.69228090      -0.00746885       0.00000000
Si      -0.01080027       2.73432539       2.67869132       0.00000000
Si       2.72407898      -2.69674436      -0.03603137       0.00000000
Si      -2.76037311      -0.00100998       2.66731300       0.00000000
Si      -0.01892898       2.70783785      -2.72108288       0.00000000
