10
Lattice="16.290000149 0.0 0.0 0.0 16.290000149 0.0 0.0 0.0 29.1751946751" Properties=species:S:1:pos:R:3:initial_magmoms:R:1 pbc="T T T"
Si       1.33097446       1.37933947      -1.37568628       0.00000000
Si       1.34612416      -1.36344043       1.37689122       0.00000000
Si      -1.36653553       1.34762284       1.38747015       0.00000000
Si      -1.38774511      -1.37800369      -1.34341852       0.00000000
Si       2.53034201      -0.08982306      -2.80891772       0.00000000
Si      -2.65030157      -2.74685241       0.08034265       0.00000000
Si      -2.82916578       0.05405022      -2.56717206       0.00000000
Si       2.71541270       0.04258206       2.69165678       0.00000000
Si      -0.06048477       2.80679961      -2.60206559       0.00000000
Si       2.63204048       2.82761823      -0.00180594       0.00000000
