10
Lattice="16.290000149 0.0 0.0 0.0 16.290000149 0.0 0.0 0.0 29.1751946751" Properties=species:S:1:pos:R:3:initial_magmoms:R:1 pbc="T T T"
Si      -1.39145923       1.42746013      -1.22637931       0.00000000
Si      -1.33097446      -1.37933947       1.37568628       0.00000000
Si       1.19936755      -1.46916253      -1.43323144       0.00000000
Si       1.30106602       1.44827875       1.37388034       0.00000000
H        3.19112958       1.71444107      -0.51164539       0.00000000
Si      -0.00162900       2.67845069      -2.63752512       0.00000000
Si       2.66543498      -2.67853214       0.02605345       0.00000000
Si       2.51928110      -0.13089015      -2.83848387       0.00000000
Si      -2.88205941       0.14595840      -2.52111610       0.00000000
Si       2.72466542       0.08364915       2.71106995       0.00000000
