10
Lattice="16.290000149 0.0 0.0 0.0 16.290000149 0.0 0.0 0.0 29.1751946751" Properties=species:S:1:pos:R:3:initial_magmoms:R:1 pbc="T T T"
Si      -2.30871656      -0.08573590       0.35474119       0.00000000
H       -0.90671770       1.55691676      -1.50272675       0.00000000
Si       0.97495651      -0.40855320      -2.15097040       0.00000000
Si       1.02019384       2.15145290       0.39339832       0.00000000
Si       0.06206490      -2.06446430       1.29237360       0.00000000
H       -2.91854901       1.22264596      -0.08154467       0.00000000
Si       2.84105748       1.26672670       1.54056698       0.00000000
Si       2.89282710      -1.46673532      -1.36881261       0.00000000
Si       3.53652645      -0.77978113       0.77349276       0.00000000
Si      -3.15656220      -1.74366533      -1.04511382       0.00000000
