10
Lattice="16.290000149 0.0 0.0 0.0 16.290000149 0.0 0.0 0.0 29.1751946751" Properties=species:S:1:pos:R:3:initial_magmoms:R:1 pbc="T T T"
Si       1.34918342      -1.33776739       1.37146755       0.00000000
Si      -1.27362096       1.36029646       1.42188229       0.00000000
Si       1.34403578       1.36778986      -1.36084778       0.00000000
Si      -1.37891919      -1.36365220      -1.33123496       0.00000000
Si       2.66381902       0.12468366       2.65079984       0.00000000
Si       0.01861947      -2.70052202      -2.67866215       0.00000000
Si      -2.66534050       2.71764443       0.07471767       0.00000000
Si      -2.68290112       0.01739772      -2.70506570       0.00000000
Si      -0.06121945      -2.62581933       2.76294929       0.00000000
Si       2.72213722       0.02062314      -2.71656073       0.00000000
