10
Lattice="16.290000149 0.0 0.0 0.0 16.290000149 0.0 0.0 0.0 29.1751946751" Properties=species:S:1:pos:R:3:initial_magmoms:R:1 pbc="T T T"
Si      -1.44886878       1.38512242      -1.22493805       0.00000000
Si      -1.30082526      -1.28959135       1.47089953       0.00000000
Si       1.36049976       1.39496158       1.31918852       0.00000000
Si       1.43295605      -1.30319187      -1.35480560       0.00000000
Si      -2.62347553      -2.62709207       0.13296595       0.00000000
Si      -0.12687011       2.70769124      -2.59259299       0.00000000
Si       0.09256239      -2.51993987      -2.83728476       0.00000000
Si       2.70998455      -2.67895568       0.03093154       0.00000000
Si       2.65660222       0.04181643       2.74775193       0.00000000
Si       0.01007618       2.72332964       2.72394497       0.00000000
