10
Lattice="16.290000149 0.0 0.0 0.0 16.290000149 0.0 0.0 0.0 29.1751946751" Properties=species:S:1:pos:R:3:initial_magmoms:R:1 pbc="T T T"
Si       1.74346985       0.31963261      -1.49689171       0.00000000
Si      -1.91787059       1.05818212      -0.78215779       0.00000000
Si       0.64369936       0.68695419       2.14230537       0.00000000
Si      -0.03818376      -2.13726431       0.99481579       0.00000000
Si       1.85984561      -1.98680987      -1.72460411       0.00000000
Si      -0.59468275      -1.09393867       3.00688309       0.00000000
H        1.31986468       2.98973631       0.00542659       0.00000000
Si      -0.75846241       2.49890231      -2.28713104       0.00000000
Si      -2.89282710       1.46673532       1.36881261       0.00000000
Si       2.14944923      -2.87264379       0.52010620       0.00000000
