10
Lattice="16.290000149 0.0 0.0 0.0 16.290000149 0.0 0.0 0.0 29.1751946751" Properties=species:S:1:pos:R:3:initial_magmoms:R:1 pbc="T T T"
Si       1.34544650       1.32770017      -1.38399538       0.00000000
Si      -1.33272727      -1.36117612      -1.37566586       0.00000000
Si      -1.35478393       1.38696319       1.33190599       0.00000000
Si       1.36808960      -1.34988715       1.36414458       0.00000000
Si      -2.62739132      -2.67551849       0.09400248       0.00000000
Si       2.70650859       2.69529455      -0.01873047       0.00000000
Si      -2.69673785       0.03490947       2.71764021       0.00000000
Si       0.00844311       2.71777475       2.71075486       0.00000000
Si      -0.03099661       2.66900249      -2.76426217       0.00000000
Si       2.72745753       0.00493587       2.71769856       0.00000000
