10
Lattice="16.290000149 0.0 0.0 0.0 16.290000149 0.0 0.0 0.0 29.1751946751" Properties=species:S:1:pos:R:3:initial_magmoms:R:1 pbc="T T T"
Si      -1.34514676      -1.35905842      -1.36268582       0.00000000
Si      -1.36987498       1.36423864       1.33625309       0.00000000
Si       1.34609158      -1.35822763       1.36936694       0.00000000
Si       1.35210259       1.37601631      -1.34558915       0.00000000
Si      -0.00635310       2.72051147       2.68403038       0.00000000
Si      -2.70622514      -2.70088202       0.01123245       0.00000000
Si      -2.69829191       0.00925272      -2.71661908       0.00000000
Si       2.77076613       0.04447170      -2.64712376       0.00000000
Si       2.71666703      -2.70471017       0.03083818       0.00000000
Si       0.03163518      -2.70819623      -2.71574382       0.00000000
