10
Lattice="16.290000149 0.0 0.0 0.0 16.290000149 0.0 0.0 0.0 29.1751946751" Properties=species:S:1:pos:R:3:initial_magmoms:R:1 pbc="T T T"
Si       1.37645614       1.34167699      -1.34173803       0.00000000
Si       1.36129015      -1.39430998       1.30477306       0.00000000
Si      -1.35462754      -1.35428545      -1.35944737       0.00000000
Si      -1.35179308       1.36980982       1.35162842       0.00000000
Si       0.00697212       2.68933241      -2.68283420       0.00000000
Si       2.77961160      -0.08234595       2.61815280       0.00000000
Si      -2.74054818       0.01081656       2.66579589       0.00000000
Si       0.01097946      -2.75128329       2.65759766       0.00000000
Si       0.01470987      -2.73395072      -2.68087946       0.00000000
Si       0.02407662       2.73614988       2.68852336       0.00000000
