10
Lattice="16.290000149 0.0 0.0 0.0 16.290000149 0.0 0.0 0.0 29.1751946751" Properties=species:S:1:pos:R:3:initial_magmoms:R:1 pbc="T T T"
Si       1.52984278      -1.28137141      -1.19522020       0.00000000
Si       1.38623014       1.32325300       1.37222027       0.00000000
Si      -1.21886668      -1.43467660       1.44077323       0.00000000
Si      -1.46606743       1.20936961      -1.45928489       0.00000000
H        0.34801956      -1.81089416      -2.25174152       0.00000000
Si      -2.66543498       2.67853214      -0.02605345       0.00000000
Si       2.84065560       2.49790862      -0.04752639       0.00000000
Si      -2.65028528      -0.06424776       2.72652406       0.00000000
Si      -0.14615388       2.54764199      -2.86453731       0.00000000
Si       0.05923044       2.76218130       2.68501651       0.00000000
