10
Lattice="16.290000149 0.0 0.0 0.0 16.290000149 0.0 0.0 0.0 29.1751946751" Properties=species:S:1:pos:R:3:initial_magmoms:R:1 pbc="T T T"
Si       1.71079211      -1.64981864      -0.08717548       0.00000000
Si      -2.05855103      -1.01354752      -0.72506194       0.00000000
Si       1.41025789       1.73933219      -0.90898237       0.00000000
Si      -1.00429480       1.22929228       1.85128280       0.00000000
H        0.78421690      -1.47385405      -2.63104823       0.00000000
H       -0.62496586       0.61242256      -3.08358468       0.00000000
Si      -2.39183792       2.61625547       0.54662645       0.00000000
Si       2.15738246      -1.88766893       2.19144807       0.00000000
Si      -3.48774442       0.92106919      -0.72118164       0.00000000
Si       3.60649200      -0.77963941      -1.33310217       0.00000000
