10
Lattice="16.290000149 0.0 0.0 0.0 16.290000149 0.0 0.0 0.0 29.1751946751" Properties=species:S:1:pos:R:3:initial_magmoms:R:1 pbc="T T T"
Si       1.31158936      -1.42588000       1.29759596       0.00000000
Si      -1.35009892      -1.38649078      -1.32417456       0.00000000
Si       1.37653759       1.32913369      -1.35565460       0.00000000
Si      -1.29987685       1.35876520       1.41642653       0.00000000
Si       2.66074346      -0.08158032       2.61120910       0.00000000
Si       0.00964368       2.68576490      -2.68426379       0.00000000
Si      -2.67043601       2.70024671       0.05931317       0.00000000
Si      -2.68918580      -0.02792106      -2.68718131       0.00000000
Si      -2.63358803      -0.03878649       2.75635569       0.00000000
Si       0.03780909      -2.73812097      -2.65803529       0.00000000
