10
Lattice="16.290000149 0.0 0.0 0.0 16.290000149 0.0 0.0 0.0 29.1751946751" Properties=species:S:1:pos:R:3:initial_magmoms:R:1 pbc="T T T"
H       -1.13592452       0.96760972       0.29014731       0.00000000
H        1.52281854      -1.46282572      -0.62601215       0.00000000
Si       1.47554496       1.19031031      -1.40265583       0.00000000
Si       1.29588254       0.17392833       2.02140336       0.00000000
Si      -1.31440818      -1.69873751      -1.13917465       0.00000000
H       -2.28537625      -0.85529017       2.21953211       0.00000000
Si       2.13265098      -2.77120758      -0.18972629       0.00000000
Si       0.04731268       2.41654007      -2.77654493       0.00000000
Si      -2.60446477      -0.35168481      -2.63965491       0.00000000
Si       0.74293478       2.54775602       2.76796742       0.00000000
