10
Lattice="16.290000149 0.0 0.0 0.0 16.290000149 0.0 0.0 0.0 29.1751946751" Properties=species:S:1:pos:R:3:initial_magmoms:R:1 pbc="T T T"
Si       1.27362096      -1.36029646      -1.42188229       0.00000000
Si       1.35641325       1.41232672       1.31075397       0.00000000
Si      -1.39171955       1.35734797      -1.34716461       0.00000000
Si      -1.29536420      -1.35589816       1.44764398       0.00000000
Si       2.62280438      -2.69806385      -0.05041474       0.00000000
Si      -0.09238027       2.65325006       2.67002629       0.00000000
Si      -2.72111388      -2.63000423       0.04530908       0.00000000
Si       2.61765674       0.00749340      -2.78273007       0.00000000
Si      -0.03394803       2.70270650      -2.74036769       0.00000000
Si       2.78464553       0.18609696       2.68464306       0.00000000
