10
Lattice="16.290000149 0.0 0.0 0.0 16.290000149 0.0 0.0 0.0 29.1751946751" Properties=species:S:1:pos:R:3:initial_magmoms:R:1 pbc="T T T"
Si      -1.35690814       1.35498592      -1.30494811       0.00000000
Si       1.38733786       1.35441577       1.29316133       0.00000000
Si       1.35923761      -1.35026182      -1.33298547       0.00000000
Si      -1.34736220      -1.31719312       1.38267083       0.00000000
H       -0.44105175      -2.21434859       2.19385794       0.00000000
Si       2.60628599      -0.17834292       2.53911719       0.00000000
Si      -2.66714543      -0.07408692      -2.62897679       0.00000000
Si      -2.55743228       2.75750607       0.16769902       0.00000000
Si       2.60003063      -2.73909836       0.04064105       0.00000000
Si       0.01681128       2.61034220      -2.73359904       0.00000000
