10
Lattice="16.290000149 0.0 0.0 0.0 16.290000149 0.0 0.0 0.0 29.1751946751" Properties=species:S:1:pos:R:3:initial_magmoms:R:1 pbc="T T T"
Si      -1.32804226       1.35847198       1.36621602       0.00000000
Si       1.37668420      -1.33942897       1.35941820       0.00000000
Si       1.41182173       1.40540347      -1.25635974       0.00000000
Si      -1.41884272      -1.43114167      -1.23459504       0.00000000
Si       0.07802910      -2.66860828      -2.51495430       0.00000000
Si       2.67116906       0.00259011      -2.61834827       0.00000000
Si      -2.66809025      -0.06071283      -2.64786190       0.00000000
Si       0.04937499       2.72293868       2.67189350       0.00000000
Si      -2.64561005       2.74973574       0.02526572       0.00000000
Si       0.09632277       2.66918168      -2.72856632       0.00000000
