10
Lattice="16.290000149 0.0 0.0 0.0 16.290000149 0.0 0.0 0.0 29.1751946751" Properties=species:S:1:pos:R:3:initial_magmoms:R:1 pbc="T T T"
Si       1.38894894      -1.34905636       1.32992207       0.00000000
Si       1.37671515       1.34719930      -1.35031554       0.00000000
Si      -1.31367965      -1.36660069      -1.39439925       0.00000000
Si      -1.36997435       1.34017831       1.37989918       0.00000000
Si       0.02772395      -2.69777063       2.68373863       0.00000000
Si      -2.66230893      -2.71920827      -0.03670239       0.00000000
Si      -2.70173073       2.70648090       0.00805235       0.00000000
Si       0.03116929       2.70758862      -2.70599931       0.00000000
Si      -2.68218273      -0.00979029      -2.73485357       0.00000000
Si       2.70780365      -2.71225244      -0.05983832       0.00000000
