10
Lattice="16.290000149 0.0 0.0 0.0 16.290000149 0.0 0.0 0.0 29.1751946751" Properties=species:S:1:pos:R:3:initial_magmoms:R:1 pbc="T T T"
Si      -1.37057545       1.34648254       1.33852876       0.00000000
Si      -1.38481291      -1.35058762      -1.32572085       0.00000000
Si       1.36260964      -1.36521604       1.33604886       0.00000000
Si       1.37166688       1.35791812      -1.33701165       0.00000000
Si       0.00676035       2.68252319       2.68350523       0.00000000
Si      -0.05473440      -2.77133465      -2.61129662       0.00000000
Si      -0.00187335      -2.71186637       2.68680203       0.00000000
Si       2.69970914      -0.00055386      -2.70322766       0.00000000
Si      -2.72064179      -0.01725111       2.69572964       0.00000000
Si       2.72163548      -0.02098152       2.69949324       0.00000000
