10
Lattice="16.290000149 0.0 0.0 0.0 16.290000149 0.0 0.0 0.0 29.1751946751" Properties=species:S:1:pos:R:3:initial_magmoms:R:1 pbc="T T T"
Si      -1.32199867      -1.32256882       1.36765494       0.00000000
Si       1.26318037      -1.42302925      -1.33187623       0.00000000
Si      -1.14813550       1.49732794      -1.37855654       0.00000000
Si       1.50270690       1.38634417       1.16908856       0.00000000
Si       1.93824938       0.34057503      -2.84163420       0.00000000
H       -2.32995872       0.96780520      -2.43507786       0.00000000
Si       0.50905599       2.27519174      -2.83775390       0.00000000
Si       0.10264329       2.73944046       2.53608647       0.00000000
Si       0.12687011      -2.70769124       2.59259299       0.00000000
Si      -2.58134600       0.08024454       2.72964347       0.00000000
