10
Lattice="16.290000149 0.0 0.0 0.0 16.290000149 0.0 0.0 0.0 29.1751946751" Properties=species:S:1:pos:R:3:initial_magmoms:R:1 pbc="T T T"
Si       0.98391601      -1.78761575      -1.17465169       0.00000000
Si      -1.39158955       1.34868169      -1.39334895       0.00000000
Si      -1.28554165      -1.33753933       1.51781033       0.00000000
Si       1.47681883       1.27146709       1.40137213       0.00000000
H        1.63611874      -1.44407593      -2.48984029       0.00000000
H        2.76006360       0.19095138      -1.93554077       0.00000000
H       -1.87326857      -2.92688949      -0.86618235       0.00000000
H       -0.29185164      -0.87332320      -3.58455194       0.00000000
Si      -2.79070509       2.53078184       0.08816744       0.00000000
Si       2.56855835      -2.75540466       0.24133721       0.00000000
