10
Lattice="16.290000149 0.0 0.0 0.0 16.290000149 0.0 0.0 0.0 29.1751946751" Properties=species:S:1:pos:R:3:initial_magmoms:R:1 pbc="T T T"
Si      -1.43454628       1.34508323      -1.26238150       0.00000000
Si      -1.38038203      -1.34257294       1.33540701       0.00000000
Si       1.34573320       1.38890659       1.33934566       0.00000000
Si       1.35317773      -1.32949207      -1.40180975       0.00000000
Si      -0.09894546       2.68472234      -2.58890758       0.00000000
Si      -0.01089801      -2.69022836       2.67650318       0.00000000
Si       2.70132185      -2.67294467      -0.03661487       0.00000000
Si       2.70585047       0.03648960       2.69208274       0.00000000
Si      -2.73088820       0.03427416       2.68408873       0.00000000
Si      -0.07214841      -2.78816385      -2.62577044       0.00000000
