10
Lattice="16.290000149 0.0 0.0 0.0 16.290000149 0.0 0.0 0.0 29.1751946751" Properties=species:S:1:pos:R:3:initial_magmoms:R:1 pbc="T T T"
Si      -1.88968889      -1.34438113      -0.35917582       0.00000000
Si       0.50125959       1.24128172      -1.94131745       0.00000000
Si       1.91282069      -1.51053913       0.31806797       0.00000000
Si      -1.64556695       1.50622228       1.07186748       0.00000000
H       -0.92079226      -0.94856671       2.13906692       0.00000000
H       -2.72391608      -1.43682688       0.90974092       0.00000000
Si       0.17702343       2.81518896       1.67486040       0.00000000
Si      -2.79725367       0.07169229      -1.96033968       0.00000000
Si      -0.03499092      -1.85069063       2.97020987       0.00000000
Si       1.52422273      -0.39320802      -3.24991246       0.00000000
