10
Lattice="16.290000149 0.0 0.0 0.0 16.290000149 0.0 0.0 0.0 29.1751946751" Properties=species:S:1:pos:R:3:initial_magmoms:R:1 pbc="T T T"
Si       1.32095611       1.34288245       1.39174723       0.00000000
Si      -1.35850130       1.33986880      -1.38093782       0.00000000
Si       1.41890788      -1.38256489      -1.28389820       0.00000000
Si      -1.37383834      -1.35920503       1.36175513       0.00000000
Si       0.03533301      -2.65478132      -2.66845696       0.00000000
Si       2.67693572       2.65712708      -0.00729088       0.00000000
Si       0.13129740       2.53693946      -2.81531584       0.00000000
Si       2.62526384      -2.78348862       0.14978253       0.00000000
Si       2.67410126      -0.02542869       2.74568049       0.00000000
Si      -2.86120821      -0.04647537      -2.55002638       0.00000000
