10
Lattice="16.290000149 0.0 0.0 0.0 16.290000149 0.0 0.0 0.0 29.1751946751" Properties=species:S:1:pos:R:3:initial_magmoms:R:1 pbc="T T T"
Si      -1.67268980       1.68098141       0.25785037       0.00000000
Si       0.35060967      -0.24672834       2.35855191       0.00000000
Si       1.62435736       1.05580378      -1.44469729       0.00000000
Si      -1.07059510      -1.68748112      -1.38442134       0.00000000
H        1.88991369      -1.63404992       0.26272263       0.00000000
H        0.55692253       2.46739745       1.39212359       0.00000000
H       -1.09125082       0.04408074       2.80032271       0.00000000
Si      -2.41535090      -0.27122850      -2.75060818       0.00000000
Si       0.33791976       2.47762757      -2.79232871       0.00000000
Si      -3.53883963       0.84605374      -0.99522424       0.00000000
