10
Lattice="16.290000149 0.0 0.0 0.0 16.290000149 0.0 0.0 0.0 29.1751946751" Properties=species:S:1:pos:R:3:initial_magmoms:R:1 pbc="T T T"
Si       1.37434822      -1.24809094       1.43769320       0.00000000
Si      -1.16963863       1.59251954       1.28572165       0.00000000
Si       1.31619292       1.41952690      -1.35326223       0.00000000
Si      -1.49122571      -1.35904213      -1.33511526       0.00000000
Si      -0.51778580       2.60830758      -2.28182115       0.00000000
Si      -1.45491530       3.41729994      -0.28638371       0.00000000
Si      -0.07491445      -2.55591731      -2.71244702       0.00000000
Si       2.82135635      -2.44879427       0.07638066       0.00000000
Si      -2.64659397       0.28672029       2.66267414       0.00000000
Si       0.01530283      -2.70023042       2.67790359       0.00000000
