10
Lattice="16.290000149 0.0 0.0 0.0 16.290000149 0.0 0.0 0.0 29.1751946751" Properties=species:S:1:pos:R:3:initial_magmoms:R:1 pbc="T T T"
Si       1.37430586      -1.34623331       1.33677824       0.00000000
Si       1.36448299       1.34665033      -1.35075316       0.00000000
Si      -1.34920297      -1.37027735      -1.35162842       0.00000000
Si      -1.34977312       1.35051106       1.37280961       0.00000000
Si       0.01840770      -2.70030699       2.67104742       0.00000000
Si       0.00187335       2.71186637      -2.68680203       0.00000000
Si      -2.73158867      -0.01125802      -2.67411082       0.00000000
Si      -2.71876844       2.69461526       0.00892761       0.00000000
Si       2.72350883       2.69088485       0.01269121       0.00000000
Si       2.72741843      -0.01564492      -2.69637149       0.00000000
