10
Lattice="16.290000149 0.0 0.0 0.0 16.290000149 0.0 0.0 0.0 29.1751946751" Properties=species:S:1:pos:R:3:initial_magmoms:R:1 pbc="T T T"
Si      -0.55649899       1.04332564       2.01206730       0.00000000
Si      -1.62554653      -1.67928725      -0.09172681       0.00000000
Si       2.18763299      -0.73537948      -0.47470959       0.00000000
Si       0.03818376       2.13726431      -0.99481579       0.00000000
Si       0.68188312       2.82421850       1.14748958       0.00000000
Si       1.89802937       0.15045444      -2.71941990       0.00000000
Si       1.92296936      -2.76485286       0.73270584       0.00000000
Si      -3.45295875      -0.23309361       0.08428714       0.00000000
Si      -0.22806000      -0.81609643      -3.40696253       0.00000000
Si      -2.79257844       1.53953533       1.66637042       0.00000000
