10
Lattice="16.290000149 0.0 0.0 0.0 16.290000149 0.0 0.0 0.0 29.1751946751" Properties=species:S:1:pos:R:3:initial_magmoms:R:1 pbc="T T T"
Si       1.34928442       1.01706616      -1.63421935       0.00000000
Si       1.43392726      -1.62818161       0.92540800       0.00000000
Si      -1.83283679      -1.18971735      -1.00240134       0.00000000
Si      -0.10911042       1.73690498       1.80305621       0.00000000
H       -2.25644195       1.48038634       0.49991696       0.00000000
Si       2.77503411       2.29117223      -0.23188445       0.00000000
Si       0.63790012       0.41604660       3.59053286       0.00000000
Si       2.62604576      -0.47596937       2.61281373       0.00000000
Si      -2.89854489       2.32217210      -0.58090730       0.00000000
Si       0.15048702      -3.06818895       2.21180068       0.00000000
