10
Lattice="16.290000149 0.0 0.0 0.0 16.290000149 0.0 0.0 0.0 29.1751946751" Properties=species:S:1:pos:R:3:initial_magmoms:R:1 pbc="T T T"
Si      -1.34690608      -1.28790370       1.37231363       0.00000000
Si       1.25589385       1.31777956       1.47165517       0.00000000
Si       1.36313092      -1.37013562      -1.34485977       0.00000000
Si      -1.42610806       1.36113866      -1.30042595       0.00000000
Si       2.41530203       2.75849976      -0.03331807       0.00000000
Si       2.70661610       0.00775404      -2.65835621       0.00000000
Si      -0.04577490      -2.69620679      -2.70083530       0.00000000
Si      -0.11850975       2.71062344      -2.72087866       0.00000000
Si      -2.76154599      -2.68066613       0.06969954       0.00000000
Si      -2.77101048       0.01663209      -2.68887347       0.00000000
