10
Lattice="16.290000149 0.0 0.0 0.0 16.290000149 0.0 0.0 0.0 29.1751946751" Properties=species:S:1:pos:R:3:initial_magmoms:R:1 pbc="T T T"
Si      -1.35589816      -1.35407368       1.33426918       0.00000000
Si      -1.37430586       1.34623331      -1.33677824       0.00000000
Si       1.30622995       1.31480664       1.44624358       0.00000000
Si       1.35275419      -1.38450340      -1.33806195       0.00000000
Si       0.03818376      -2.80419321       2.52887670       0.00000000
Si       2.67312386       2.67297725       0.06821161       0.00000000
Si      -0.00982287       2.69288363      -2.68753141       0.00000000
Si       2.71322984      -0.02182860      -2.68041266       0.00000000
Si      -2.72350883      -0.02404404      -2.68840666       0.00000000
Si      -2.72407898       2.69674436       0.03603137       0.00000000
