10
Lattice="16.290000149 0.0 0.0 0.0 16.290000149 0.0 0.0 0.0 29.1751946751" Properties=species:S:1:pos:R:3:initial_magmoms:R:1 pbc="T T T"
Si       1.35936793       1.35482302       1.35355398       0.00000000
Si      -1.33157231      -1.35664750       1.38401288       0.00000000
Si       1.37870416      -1.36137160      -1.33412330       0.00000000
Si      -1.36808960       1.34988715      -1.36414458       0.00000000
Si      -2.66651387      -2.73509103       0.04064105       0.00000000
Si       2.71474481       2.69821046      -0.02278583       0.00000000
Si      -0.00907353       2.70835913       2.70605766       0.00000000
Si       2.70712109      -0.00638568       2.71874887       0.00000000
Si      -0.02264310       2.67758732      -2.74813996       0.00000000
Si      -2.71979471       0.00397476       2.70777899       0.00000000
