10
Lattice="16.290000149 0.0 0.0 0.0 16.290000149 0.0 0.0 0.0 29.1751946751" Properties=species:S:1:pos:R:3:initial_magmoms:R:1 pbc="T T T"
Si       1.30585528       1.23852871      -1.49502450       0.00000000
Si       1.45023355      -1.34995231       1.28382527       0.00000000
Si      -1.51584967       1.33648048       1.23174754       0.00000000
Si      -1.43208649      -1.41029047      -1.31828117       0.00000000
Si       2.51268365      -2.81338077      -0.19281886       0.00000000
Si      -2.84160971      -0.14954220       2.49617131       0.00000000
Si      -0.11383452       2.60995124      -2.74941200       0.00000000
Si       0.13365945      -2.72979677       2.64295171       0.00000000
Si       2.49131117      -0.21315465      -2.90596609       0.00000000
Si       3.15993423       2.17240184      -0.38671721       0.00000000
