10
Lattice="16.290000149 0.0 0.0 0.0 16.290000149 0.0 0.0 0.0 29.1751946751" Properties=species:S:1:pos:R:3:initial_magmoms:R:1 pbc="T T T"
Si       0.61686973      -0.40428522       2.15312937       0.00000000
Si       1.83233180       0.82047844      -1.16805809       0.00000000
Si      -0.87548977      -1.88911874      -1.07641881       0.00000000
Si      -1.60533064       1.77604985       0.08291590       0.00000000
H        2.68491782       1.75487285      -0.36684890       0.00000000
Si      -2.27395370      -0.60950665      -2.43633298       0.00000000
Si       0.53585955       2.11271528      -2.59635892       0.00000000
Si      -1.51824430      -0.97080256       3.16072389       0.00000000
Si      -3.45940959       0.84217672      -1.02539139       0.00000000
Si      -0.54766980       3.53449020      -1.10072174       0.00000000
