10
Lattice="16.290000149 0.0 0.0 0.0 16.290000149 0.0 0.0 0.0 29.1751946751" Properties=species:S:1:pos:R:3:initial_magmoms:R:1 pbc="T T T"
Si      -0.11637576       2.30644248       0.22771239       0.00000000
Si       1.59707161       0.07819200      -1.79827147       0.00000000
Si       0.28960362      -0.88583392       2.24471030       0.00000000
Si      -2.12608937      -0.96655087      -0.68754264       0.00000000
H        1.10649826      -2.74616823       0.04633021       0.00000000
H        2.53325792      -1.83244583       0.60132994       0.00000000
Si      -1.85984561       1.98680987       1.72460411       0.00000000
Si      -1.89802937      -0.15045444       2.71941990       0.00000000
Si       3.17726679      -1.00831843      -0.47958185       0.00000000
Si      -1.04256001      -2.38832579      -2.18317982       0.00000000
