10
Lattice="16.290000149 0.0 0.0 0.0 16.290000149 0.0 0.0 0.0 29.1751946751" Properties=species:S:1:pos:R:3:initial_magmoms:R:1 pbc="T T T"
Si      -1.35462754      -1.33345054      -1.37937986       0.00000000
Si      -1.34762284       1.30170133       1.42264084       0.00000000
Si       1.34470693      -1.38675142       1.36259829       0.00000000
Si       1.30769605       1.34869798      -1.43785571       0.00000000
Si       2.69081643       2.63798633       0.00035010       0.00000000
Si      -2.69576696       2.64515393       0.05744596       0.00000000
Si       2.66849425      -0.10471212      -2.73356987       0.00000000
Si       0.00788436       2.65012238       2.79154098       0.00000000
Si      -2.69485472      -2.75385711      -0.02310675       0.00000000
Si       2.70793397      -0.05593986       2.74144717       0.00000000
