10
Lattice="16.290000149 0.0 0.0 0.0 16.290000149 0.0 0.0 0.0 29.1751946751" Properties=species:S:1:pos:R:3:initial_magmoms:R:1 pbc="T T T"
Si       1.18182322       0.52952274       1.05652132       0.00000000
Si      -1.28765935      -0.55680850      -0.92152770       0.00000000
Si      -0.05727564      -2.40525110      -1.59063161       0.00000000
Si      -0.34801956       1.81089416       2.25174152       0.00000000
Si       2.83901471       1.30738654      -0.40267604       0.00000000
Si      -3.06605496      -1.15302250       0.52398650       0.00000000
Si       2.32995872      -0.96780520       2.43507786       0.00000000
Si      -2.31375017       0.78022585      -2.53526607       0.00000000
Si      -1.81408700       3.02026377       0.79245664       0.00000000
H       -0.34394706       0.69214582      -3.60824220       0.00000000
