10
Lattice="16.290000149 0.0 0.0 0.0 16.290000149 0.0 0.0 0.0 29.1751946751" Properties=species:S:1:pos:R:3:initial_magmoms:R:1 pbc="T T T"
H       -0.66204190       0.40586535      -0.05143587       0.00000000
Si       1.96822298       0.62683921       1.06988356       0.00000000
H       -1.82048897      -1.18829035       1.08254560       0.00000000
Si       0.74218870      -0.52997886      -2.51236354       0.00000000
Si       0.19798866       2.18028620       1.71010404       0.00000000
Si      -2.52698627      -1.26677557      -0.25186946       0.00000000
Si      -0.91621477      -2.05366403      -1.77676936       0.00000000
Si       2.60833853       0.30494880      -1.25928893       0.00000000
Si       1.21997440      -1.24387183       2.35615955       0.00000000
Si      -0.75064321       1.26796474      -2.61613971       0.00000000
