10
Lattice="16.290000149 0.0 0.0 0.0 16.290000149 0.0 0.0 0.0 29.1751946751" Properties=species:S:1:pos:R:3:initial_magmoms:R:1 pbc="T T T"
Si       1.34862929       1.35260758      -1.35769686       0.00000000
Si      -1.34428339       1.36536265       1.35069481       0.00000000
Si       1.34286616      -1.35754345       1.36875426       0.00000000
Si      -1.37000530      -1.34858395      -1.35545037       0.00000000
Si      -2.68444541      -0.08030970       2.60595756       0.00000000
Si       2.67128309      -2.70673013      -0.02605345       0.00000000
Si       2.66230893       2.71920827       0.03670239       0.00000000
Si      -0.01987380       2.70941798      -2.69815118       0.00000000
Si       2.69003288       0.02143764       2.72044103       0.00000000
Si      -0.02500515      -2.67950954      -2.74135964       0.00000000
