10
Lattice="16.290000149 0.0 0.0 0.0 16.290000149 0.0 0.0 0.0 29.1751946751" Properties=species:S:1:pos:R:3:initial_magmoms:R:1 pbc="T T T"
Si      -0.72262441       2.19152304       0.40772335       0.00000000
Si       1.90079867       0.54553907       1.29006876       0.00000000
Si      -1.62287497      -1.50557394       0.91543008       0.00000000
Si       0.73871893       0.35695952      -2.25935625       0.00000000
H        1.46349361      -2.09782948      -1.19215680       0.00000000
H        1.71677054       1.92713634       1.91085855       0.00000000
Si       1.22769586       3.20792131      -0.49113523       0.00000000
Si       2.56130930       1.66592619      -1.65636333       0.00000000
H       -0.33963021      -2.58608965      -2.42148281       0.00000000
Si      -0.40014756      -2.90120341       2.38225092       0.00000000
