10
Lattice="16.290000149 0.0 0.0 0.0 16.290000149 0.0 0.0 0.0 29.1751946751" Properties=species:S:1:pos:R:3:initial_magmoms:R:1 pbc="T T T"
Si       1.24507729      -1.09095108       1.62015691       0.00000000
Si      -1.82259038      -1.30896667      -0.60299292       0.00000000
Si       1.20818044       1.33374376      -1.49330316       0.00000000
Si      -1.33361344       1.54199512       1.16522810       0.00000000
Si      -0.66051064      -1.12038711       2.94643209       0.00000000
H        3.09382941      -0.48289262      -0.76062650       0.00000000
Si      -0.17702343      -2.81518896      -1.67486040       0.00000000
Si       2.74579356       2.05099247       0.11655490       0.00000000
Si      -3.04658841       0.56169550      -1.55182860       0.00000000
Si      -2.56130930      -1.66592619       1.65636333       0.00000000
