10
Lattice="16.290000149 0.0 0.0 0.0 16.290000149 0.0 0.0 0.0 29.1751946751" Properties=species:S:1:pos:R:3:initial_magmoms:R:1 pbc="T T T"
Si       1.31549896      -1.26377821       1.47220658       0.00000000
Si      -0.85128283      -1.94183318      -1.03506005       0.00000000
Si      -1.43141860       1.37042884       1.28575083       0.00000000
Si       1.21886668       1.43467660      -1.44077323       0.00000000
Si       2.57484629      -2.66659157       0.11021805       0.00000000
Si       2.60509682       2.75792961      -0.06855295       0.00000000
Si      -0.06213006       2.77645134       2.60051639       0.00000000
Si       2.74870947       0.15330519      -2.63599343       0.00000000
Si      -0.09632277      -2.66918168       2.72856632       0.00000000
Si      -1.49916871      -1.52924005      -3.16852825       0.00000000
