10
Lattice="16.290000149 0.0 0.0 0.0 16.290000149 0.0 0.0 0.0 29.1751946751" Properties=species:S:1:pos:R:3:initial_magmoms:R:1 pbc="T T T"
Si       1.76896370       1.01913499       1.14145032       0.00000000
Si       1.33692846      -1.29627676      -1.43390247       0.00000000
Si      -1.22836375       1.49229433      -1.36204396       0.00000000
Si      -1.27845550      -1.29883429       1.51676002       0.00000000
H       -3.14703255      -0.79610860      -1.57706515       0.00000000
Si      -2.28421640       0.47356659       2.77047649       0.00000000
Si      -2.50302368       0.02801880      -2.65797694       0.00000000
Si       3.41729994      -0.63838882       1.22681694       0.00000000
Si       2.75017557      -2.52457535      -0.06383533       0.00000000
Si      -2.52990218       2.90431546      -0.02287335       0.00000000
