10
Lattice="16.290000149 0.0 0.0 0.0 16.290000149 0.0 0.0 0.0 29.1751946751" Properties=species:S:1:pos:R:3:initial_magmoms:R:1 pbc="T T T"
Si       0.69546898      -2.04650783      -0.76707422       0.00000000
Si      -0.61522444      -0.52220853       2.18087498       0.00000000
Si      -1.82086364       0.88472620      -1.14716865       0.00000000
Si       1.76518442       1.48419820      -0.33221794       0.00000000
H        1.37163430       0.25627428      -2.90395300       0.00000000
Si       0.16602768       1.50965947       3.07071841       0.00000000
Si      -2.84105748      -1.26672670      -1.54056698       0.00000000
Si       2.15011712       2.11587554       1.89347013       0.00000000
Si      -0.70043743       2.32619573      -2.69803448       0.00000000
Si       0.78449383       3.34277319      -1.22830487       0.00000000
