10
Lattice="16.290000149 0.0 0.0 0.0 16.290000149 0.0 0.0 0.0 29.1751946751" Properties=species:S:1:pos:R:3:initial_magmoms:R:1 pbc="T T T"
Si       1.36322703       1.33081156       1.37884888       0.00000000
Si       1.35478393      -1.38696319      -1.33190599       0.00000000
Si      -1.34195392      -1.35205372       1.38573422       0.00000000
Si      -1.34470693       1.38675142      -1.36259829       0.00000000
Si      -2.69232977       2.68845275       0.06004255       0.00000000
Si       2.71099811       2.67726152       0.01003627       0.00000000
Si      -2.69806385      -2.70330923       0.03305550       0.00000000
Si       2.70023042      -0.05926302      -2.71590137       0.00000000
Si      -2.69933447       0.05330088      -2.74197816       0.00000000
Si       0.03168052       2.68006340       2.76939700       0.00000000
