10
Lattice="16.290000149 0.0 0.0 0.0 16.290000149 0.0 0.0 0.0 29.1751946751" Properties=species:S:1:pos:R:3:initial_magmoms:R:1 pbc="T T T"
Si      -1.38238570       1.35901933      -1.32248240       0.00000000
Si      -1.37741725      -1.35483931       1.33222691       0.00000000
Si       1.34920297       1.37027735       1.35162842       0.00000000
Si       1.35050617      -1.37684710      -1.34868172       0.00000000
Si      -0.00825903      -2.69636969       2.68578090       0.00000000
Si      -0.03373659       2.73155610      -2.66089446       0.00000000
Si      -2.73681777      -0.01431891      -2.66022343       0.00000000
Si       2.72350883       0.02404404       2.68840666       0.00000000
Si      -2.69734709       0.01381392       2.71594805       0.00000000
Si       2.73088820      -0.03427416      -2.68408873       0.00000000
