10
Lattice="16.290000149 0.0 0.0 0.0 16.290000149 0.0 0.0 0.0 29.1751946751" Properties=species:S:1:pos:R:3:initial_magmoms:R:1 pbc="T T T"
Si       1.72235801       0.94356568       1.27546686       0.00000000
Si      -0.87078196      -1.72763271       1.37886084       0.00000000
Si       0.73187713      -0.62726275      -2.18139400       0.00000000
Si      -1.70377112       1.66832408       0.13018876       0.00000000
H       -2.93321001      -0.96109372      -0.66723058       0.00000000
Si       0.46301067       2.34637904       2.63745540       0.00000000
Si      -0.84359395      -2.31325496      -2.61429554       0.00000000
Si      -2.36765378      -0.49016610       2.65922009       0.00000000
Si       2.97851250      -1.13671621      -1.90898521       0.00000000
Si      -2.35165700       2.08091720      -2.00327944       0.00000000
