10
Lattice="16.290000149 0.0 0.0 0.0 16.290000149 0.0 0.0 0.0 29.1751946751" Properties=species:S:1:pos:R:3:initial_magmoms:R:1 pbc="T T T"
Si      -1.39716611       1.17048538      -1.46724972       0.00000000
Si      -1.45442546      -1.17465562       1.41974666       0.00000000
Si       1.44228517      -1.30622995      -1.33908309       0.00000000
Si       1.24169663       1.49301109       1.37835290       0.00000000
H       -2.31496101       1.89506459      -0.49017245       0.00000000
Si       2.45691761       0.53864514      -2.41745663       0.00000000
Si      -0.06003403      -2.53716752       2.76694921       0.00000000
Si      -2.84065560      -2.49790862       0.04752639       0.00000000
Si       2.61813974       0.15170877       2.75861969       0.00000000
Si      -0.26483191       2.83419939      -2.63466596       0.00000000
