10
Lattice="16.290000149 0.0 0.0 0.0 16.290000149 0.0 0.0 0.0 29.1751946751" Properties=species:S:1:pos:R:3:initial_magmoms:R:1 pbc="T T T"
Si       1.33908688      -1.35856972       1.36300674       0.00000000
Si      -1.35125551      -1.35360127      -1.36102283       0.00000000
Si       1.35946567       1.35078310      -1.36274417       0.00000000
Si      -1.32841693       1.34918668       1.39480771       0.00000000
Si       2.68918580       0.02792106       2.68718131       0.00000000
Si      -2.67128309       2.70673013       0.02605345       0.00000000
Si       0.03696690      -2.71422353      -2.68478894       0.00000000
Si      -2.69079851      -2.71031393       0.01896388       0.00000000
Si      -2.69628824       0.02722059      -2.71530619       0.00000000
Si       2.69882948       2.71368596       0.00291752       0.00000000
