10
Lattice="16.290000149 0.0 0.0 0.0 16.290000149 0.0 0.0 0.0 29.1751946751" Properties=species:S:1:pos:R:3:initial_magmoms:R:1 pbc="T T T"
Si      -1.36446670      -1.36120870       1.32887177       0.00000000
Si       1.33547050      -1.44181162      -1.28823072       0.00000000
Si      -1.38355858       1.35604477      -1.34092112       0.00000000
Si       1.38034945       1.34477209       1.35623810       0.00000000
Si       2.68858307      -0.10081881      -2.60493935       0.00000000
Si       0.01874979      -2.69884577       2.67962493       0.00000000
Si      -2.71358822       0.00373041       2.68543079       0.00000000
Si      -0.03310128       2.74910043      -2.65326222       0.00000000
Si      -2.69799869      -2.71269227      -0.06637357       0.00000000
Si      -2.70697448       2.70730028       0.04469640       0.00000000
