10
Lattice="16.290000149 0.0 0.0 0.0 16.290000149 0.0 0.0 0.0 29.1751946751" Properties=species:S:1:pos:R:3:initial_magmoms:R:1 pbc="T T T"
Si       1.36850309      -1.35681040       1.34045432       0.00000000
Si       1.39986096       1.33270120      -1.33494021       0.00000000
Si      -1.35097858       1.36101322       1.35979747       0.00000000
Si      -1.35550720      -1.34842105      -1.36890013       0.00000000
Si       0.08228079       2.76826398      -2.60910848       0.00000000
Si       2.70004961      -2.70606224      -0.05009381       0.00000000
Si       0.01987380      -2.70941798       2.69815118       0.00000000
Si      -2.71145423      -0.00166158       2.70214818       0.00000000
Si       2.68218273       0.00979029       2.73485357       0.00000000
Si      -2.71109585       2.71343021       0.00706040       0.00000000
