10
Lattice="16.290000149 0.0 0.0 0.0 16.290000149 0.0 0.0 0.0 29.1751946751" Properties=species:S:1:pos:R:3:initial_magmoms:R:1 pbc="T T T"
Si       1.36412461       1.35026182      -1.34885678       0.00000000
Si       1.37326330      -1.35060391       1.34698956       0.00000000
Si      -1.35197227       1.36223497       1.35895139       0.00000000
Si      -1.36967950      -1.36161595      -1.35183265       0.00000000
Si      -0.00487071      -2.66905136       2.71043394       0.00000000
Si      -0.02575449       2.69812413      -2.68204647       0.00000000
Si       2.66445758      -2.71891505      -0.06485646       0.00000000
Si       2.68405445      -0.01839141      -2.73257791       0.00000000
Si       2.72536589       2.69375189       0.02853334       0.00000000
Si      -2.68994655       0.01454697       2.72974791       0.00000000
