10
Lattice="16.290000149 0.0 0.0 0.0 16.290000149 0.0 0.0 0.0 29.1751946751" Properties=species:S:1:pos:R:3:initial_magmoms:R:1 pbc="T T T"
Si       1.27257481      -0.26046081      -1.93160211       0.00000000
Si      -0.29932875       2.13164426       0.94892321       0.00000000
Si      -2.07005177      -0.67368925      -0.91578019       0.00000000
Si       1.23471685      -1.33815835       1.50882437       0.00000000
H       -2.25750080       0.40417119       1.66354043       0.00000000
H        2.58458771      -0.71413732      -1.31510108       0.00000000
H        0.37468629      -3.11257920      -0.25271554       0.00000000
H       -1.13355595       2.03919851       2.21783995       0.00000000
H       -3.22092399      -0.57862081       0.06053853       0.00000000
Si       0.28608498      -2.25047981      -2.81741937       0.00000000
