10
Lattice="16.290000149 0.0 0.0 0.0 16.290000149 0.0 0.0 0.0 29.1751946751" Properties=species:S:1:pos:R:3:initial_magmoms:R:1 pbc="T T T"
Si       1.43622415       1.33261975       1.21173336       0.00000000
Si      -1.24079302       1.38883654      -1.37362652       0.00000000
Si       1.52037829      -1.31817867      -1.19708741       0.00000000
Si      -1.15940818      -1.44072019       1.50497324       0.00000000
H        2.07832709       0.49083399       2.29255762       0.00000000
Si       2.50193225      -2.17926970       0.79023932       0.00000000
Si       0.75846241      -2.49890231       2.28713104       0.00000000
Si       0.00625536       2.56075544       2.49847615       0.00000000
Si      -2.41530203      -2.75849976       0.03331807       0.00000000
Si      -2.53381178      -0.04787631      -2.68756058       0.00000000
