10
Lattice="16.290000149 0.0 0.0 0.0 16.290000149 0.0 0.0 0.0 29.1751946751" Properties=species:S:1:pos:R:3:initial_magmoms:R:1 pbc="T T T"
Si      -1.34554587       1.36038932      -1.35568377       0.00000000
Si       1.35615880       1.36348442       1.35002378       0.00000000
Si      -1.37671515      -1.34719930       1.35031554       0.00000000
Si       1.31843116      -1.37059174      -1.38853504       0.00000000
Si       0.01223379      -2.69625566       2.68023761       0.00000000
Si      -2.65903692      -0.02428839      -2.71947825       0.00000000
Si       2.70656723      -0.01251072      -2.69295799       0.00000000
Si      -0.02808396       2.71925714       2.68362193       0.00000000
Si      -2.69039480      -2.71379999      -0.04408372       0.00000000
Si       2.69995349      -2.71608059      -0.05222360       0.00000000
