10
Lattice="10.86 0.0 0.0 0.0 10.86 0.0 0.0 0.0 10.86" Properties=species:S:1:pos:R:3:initial_magmoms:R:1 pbc="T T T"
Si      -1.38610524      -1.22293374       1.33789770       0.00000000
Si       1.28656248       1.54670292       1.13325186       0.00000000
Si       1.28656248      -1.16829708      -1.58174814       0.00000000
Si      -1.42843752       1.54670292      -1.58174814       0.00000000
Si       2.92332738       0.61481718       2.18891988       0.00000000
Si      -2.72451336      -2.52953292      -0.08122194       0.00000000
Si       2.65201200      -2.58503838      -0.45244932       0.00000000
Si      -0.07093752       2.90420292       2.49075186       0.00000000
Si      -0.07093752      -2.52579708      -2.93924814       0.00000000
Si       2.64406248       2.90420292      -0.22424814       0.00000000
