10
Lattice="10.86 0.0 0.0 0.0 10.86 0.0 0.0 0.0 10.86" Properties=species:S:1:pos:R:3:initial_magmoms:R:1 pbc="T T T"
Si      -1.63676490       0.93188574      -1.05566802       0.00000000
Si       1.07823510       0.93188574       1.65933198       0.00000000
Si       1.07823510      -1.78311426      -1.05566802       0.00000000
Si      -0.27926490       2.28938574      -2.41316802       0.00000000
Si       2.43573510       2.28938574       0.30183198       0.00000000
Si       2.43573510      -0.42561426      -2.41316802       0.00000000
Si      -2.92332738      -0.61481718      -2.18891988       0.00000000
Si      -2.99426490       2.28938574       0.30183198       0.00000000
Si      -0.27926490       2.28938574       3.01683198       0.00000000
Si       2.43573510      -0.42561426       3.01683198       0.00000000
