10
Lattice="10.86 0.0 0.0 0.0 10.86 0.0 0.0 0.0 10.86" Properties=species:S:1:pos:R:3:initial_magmoms:R:1 pbc="T T T"
Si      -1.64827650       1.34055840       0.97831224       0.00000000
Si      -1.40356812      -1.19525160      -1.58857908       0.00000000
Si       0.88775070       1.26692760      -1.96891800       0.00000000
Si      -0.29910612      -1.80476910       1.91962446       0.00000000
Si      -0.47252946       2.92631388       2.22858060       0.00000000
Si       2.24247054       2.92631388      -0.48641940       0.00000000
Si       3.42402768       1.59637656       0.72058272       0.00000000
Si      -3.18752946       0.21131388       2.22858060       0.00000000
Si      -1.59352038      -1.06980774       3.39936462       0.00000000
Si       2.24247054       0.21131388      -3.20141940       0.00000000
