10
Lattice="10.86 0.0 0.0 0.0 10.86 0.0 0.0 0.0 10.86" Properties=species:S:1:pos:R:3:initial_magmoms:R:1 pbc="T T T"
Si       1.35471984      -1.05561372      -1.23250140       0.00000000
Si      -1.36028016       1.65938628      -1.23250140       0.00000000
Si      -0.88775070      -1.26692760       1.96891800       0.00000000
Si       1.35471984       1.65938628       1.48249860       0.00000000
Si      -2.29131882      -2.46217920       0.38033892       0.00000000
Si      -0.00278016      -2.41311372      -2.59000140       0.00000000
Si       2.58526644      -2.54816868       0.18898572       0.00000000
Si       2.53627698       0.32944896       2.68950072       0.00000000
Si       2.71221984       0.30188628      -2.59000140       0.00000000
Si      -2.71778016       0.30188628      -2.59000140       0.00000000
