10
Lattice="10.86 0.0 0.0 0.0 10.86 0.0 0.0 0.0 10.86" Properties=species:S:1:pos:R:3:initial_magmoms:R:1 pbc="T T T"
Si       1.29441426      -0.73496136      -1.47974016       0.00000000
Si       1.12099092       1.28112162       1.54421598       0.00000000
Si      -1.59400908       1.28112162      -1.17078402       0.00000000
Si      -1.59400908      -1.43387838       1.54421598       0.00000000
Si      -0.05475612       2.41036614      -2.42105238       0.00000000
Si       2.41128924       2.62708830       0.14568690       0.00000000
Si       2.45762886      -2.66774814       0.01921134       0.00000000
Si       0.13938810      -2.81104584      -2.29741128       0.00000000
Si       2.47849092      -0.07637838       2.90171598       0.00000000
Si      -2.95150908      -0.07637838      -2.52828402       0.00000000
