10
Lattice="10.86 0.0 0.0 0.0 10.86 0.0 0.0 0.0 10.86" Properties=species:S:1:pos:R:3:initial_magmoms:R:1 pbc="T T T"
Si      -1.46700138       1.19072298       1.13085180       0.00000000
Si      -1.44455376      -1.27233588      -1.44970140       0.00000000
Si       1.28012250      -1.42528812       1.47189924       0.00000000
Si       2.58274692      -2.57329872      -0.10072650       0.00000000
Si      -0.13225308      -2.57329872       2.61427350       0.00000000
Si       2.58274692       0.14170128       2.61427350       0.00000000
Si      -0.13225308      -2.57329872      -2.81572650       0.00000000
Si      -2.84725308      -2.57329872      -0.10072650       0.00000000
Si      -2.84725308       0.14170128       2.61427350       0.00000000
Si      -0.13225308       2.85670128       2.61427350       0.00000000
