10
Lattice="10.86 0.0 0.0 0.0 10.86 0.0 0.0 0.0 10.86" Properties=species:S:1:pos:R:3:initial_magmoms:R:1 pbc="T T T"
Si      -1.41237558      -1.14801060       1.14237426       0.00000000
Si       1.30262442       1.56698940       1.14237426       0.00000000
Si       1.30262442      -1.14801060      -1.57262574       0.00000000
Si      -1.28012250       1.42528812      -1.47189924       0.00000000
Si      -0.05487558      -2.50551060       2.49987426       0.00000000
Si       2.66012442       0.20948940       2.49987426       0.00000000
Si       2.66012442      -2.50551060      -0.21512574       0.00000000
Si      -2.76987558       0.20948940       2.49987426       0.00000000
Si      -2.76987558      -2.50551060      -0.21512574       0.00000000
Si      -2.74712388       2.61601110      -0.34104744       0.00000000
