10
Lattice="16.2900001489832 0.0 0.0 0.0 16.2900001489832 0.0 0.0 0.0 29.49423432800756" Properties=species:S:1:pos:R:3:initial_magmoms:R:1 pbc="T T T"
Si       1.28556934       1.32294349       1.44681902       0.00000000
Si      -1.19227651       1.33362973      -1.54343328       0.00000000
Si       1.26147318      -1.41118154      -1.42316759       0.00000000
Si      -1.39686263      -1.36565099       1.35863126       0.00000000
Si      -2.18086775      -0.44528715      -2.77504703       0.00000000
Si      -0.55193290      -2.27815815      -2.68879350       0.00000000
Si       2.65231013       2.59789664       0.00366613       0.00000000
Si      -2.73060639       2.60123609      -0.16170804       0.00000000
Si       2.71776335      -0.09161496       2.67283535       0.00000000
Si      -0.15788936       2.67307499       2.78158059       0.00000000
