10
Lattice="16.2900001489832 0.0 0.0 0.0 16.2900001489832 0.0 0.0 0.0 29.49423432800756" Properties=species:S:1:pos:R:3:initial_magmoms:R:1 pbc="T T T"
Si      -0.16480593       0.63807931      -1.36599597       0.00000000
H       -0.88712083      -2.10802376       0.26509418       0.00000000
Si       0.59373793      -2.37838889       0.03672032       0.00000000
Si       1.76736728      -0.92613538       1.62020677       0.00000000
Si       0.28484694       2.75681537      -0.33906572       0.00000000
Si      -0.69939487       2.29356686       1.78071440       0.00000000
Si      -2.51176653       0.82218889       1.44860932       0.00000000
Si       0.50533209       0.63552178       2.98873925       0.00000000
Si       1.30116376      -0.42005394      -2.82932291       0.00000000
Si      -2.34441447       0.09998802      -2.19351570       0.00000000
