10
Lattice="16.2900001489832 0.0 0.0 0.0 16.2900001489832 0.0 0.0 0.0 29.49423432800756" Properties=species:S:1:pos:R:3:initial_magmoms:R:1 pbc="T T T"
Si      -1.04600697       1.34829073       1.56667474       0.00000000
Si      -0.79289295      -2.18979956       0.53947904       0.00000000
Si       2.17960854       0.53809128       0.82751973       0.00000000
Si       0.56380016       1.01706616      -2.14148787       0.00000000
H        2.34441447      -0.09998802       2.19351570       0.00000000
Si       0.32562733       3.17851460       1.07878111       0.00000000
Si       0.16544287       3.19285143      -1.27008072       0.00000000
Si       0.75420909      -3.29479914      -0.84285673       0.00000000
H        1.45729364      -2.20801178       2.45860988       0.00000000
Si      -0.16735206       0.72220087       3.64212502       0.00000000
