10
Lattice="16.2900001489832 0.0 0.0 0.0 16.2900001489832 0.0 0.0 0.0 29.49423432800756" Properties=species:S:1:pos:R:3:initial_magmoms:R:1 pbc="T T T"
Si      -1.33069753      -1.58338801       1.07556624       0.00000000
Si       0.82228663       1.40780625       1.66795794       0.00000000
Si      -1.20472696       1.65804509      -1.20802485       0.00000000
Si       1.26203518      -1.56165715      -1.36853247       0.00000000
H       -0.50533209      -0.63552178      -2.98873925       0.00000000
H       -2.22791653      -0.78882697       2.02834799       0.00000000
Si      -3.01709862       0.18666711      -1.54012993       0.00000000
Si       2.21100914       2.74983348       0.14537708       0.00000000
Si      -2.84148916      -2.05464143      -0.73160448       0.00000000
Si       2.76252339      -0.07441272      -2.39136303       0.00000000
