10
Lattice="16.2900001489832 0.0 0.0 0.0 16.2900001489832 0.0 0.0 0.0 29.49423432800756" Properties=species:S:1:pos:R:3:initial_magmoms:R:1 pbc="T T T"
H       -0.07402176      -0.23302845       2.04277067       0.00000000
Si       0.05760144       2.35013552      -0.19298078       0.00000000
Si       1.77748337      -0.67606759      -1.42415860       0.00000000
Si      -1.63052802      -1.74241100       0.26158436       0.00000000
H       -2.32215581       0.79027678      -1.22645875       0.00000000
H       -1.32411800       2.82189555       0.30264034       0.00000000
Si       0.66753163      -1.02177397       3.20375222       0.00000000
Si       0.05711274      -3.46493190       0.73535025       0.00000000
Si       1.94491199      -2.51141303       1.81643192       0.00000000
Si       3.34655247      -1.52653591       0.16667192       0.00000000
