10
Lattice="16.2900001489832 0.0 0.0 0.0 16.2900001489832 0.0 0.0 0.0 29.49423432800756" Properties=species:S:1:pos:R:3:initial_magmoms:R:1 pbc="T T T"
Si       1.35180937      -1.23496120      -1.47249965       0.00000000
Si       1.28241397       1.35118384       1.47503615       0.00000000
Si      -0.68406598      -1.88986808       1.28860310       0.00000000
Si      -1.44849052       1.32332305      -1.37847203       0.00000000
Si      -2.59247207      -2.61294860       0.00902524       0.00000000
Si       2.71002071      -2.53206875      -0.01695918       0.00000000
Si      -0.16845489      -1.26284968       3.51916356       0.00000000
Si       2.54876600       2.82685260       0.08571024       0.00000000
Si      -0.21300804       2.55634085       2.83439592       0.00000000
Si       2.15632361      -0.32044059       3.17531977       0.00000000
