10
Lattice="16.2900001489832 0.0 0.0 0.0 16.2900001489832 0.0 0.0 0.0 29.49423432800756" Properties=species:S:1:pos:R:3:initial_magmoms:R:1 pbc="T T T"
Si      -1.28244655      -1.33784884      -1.40728790       0.00000000
Si      -1.87463693       1.05754681       1.07146654       0.00000000
Si       1.33869592      -1.44156727       1.39354358       0.00000000
Si       1.37854126       1.40673925      -1.39811519       0.00000000
H       -0.80036029      -1.04689315       3.19859072       0.00000000
Si       2.02709504       0.19859139       2.97561431       0.00000000
Si      -2.69565293      -2.50117477       0.10971855       0.00000000
Si      -2.63896373       0.13442508      -2.73367311       0.00000000
Si      -3.65353752      -0.56466028       1.15284114       0.00000000
Si       2.83411794      -2.64672429       0.03418382       0.00000000
