10
Lattice="16.2900001489832 0.0 0.0 0.0 16.2900001489832 0.0 0.0 0.0 29.49423432800756" Properties=species:S:1:pos:R:3:initial_magmoms:R:1 pbc="T T T"
Si       0.62211511      -0.90288955      -1.04999474       0.00000000
H        1.84855664       1.41972075      -0.05247024       0.00000000
Si      -0.68357728      -2.79038091      -0.56620082       0.00000000
Si      -1.00462060       1.90195363      -2.09821983       0.00000000
Si       2.94384738      -0.79989114      -0.57675975       0.00000000
Si      -2.34585776       2.06635231      -0.07810073       0.00000000
Si      -0.04673601      -0.03456086      -3.14134242       0.00000000
Si      -3.37195347       0.15509058       0.85999288       0.00000000
Si      -2.97359618      -2.02069470      -0.01141427       0.00000000
Si       2.48396438       2.58834907       0.66948963       0.00000000
