10
Lattice="16.2900001489832 0.0 0.0 0.0 16.2900001489832 0.0 0.0 0.0 29.49423432800756" Properties=species:S:1:pos:R:3:initial_magmoms:R:1 pbc="T T T"
Si       0.66943756      -2.18506243      -0.21923064       0.00000000
Si       0.11792331       0.63918377       2.31750946       0.00000000
Si       1.60853977       0.78273125      -1.61203687       0.00000000
Si      -2.31357098       0.01064389      -1.15567258       0.00000000
Si      -1.86307103       2.30897394      -1.70792263       0.00000000
Si      -3.29781279      -0.45260462       0.96410753       0.00000000
Si       0.39415284       2.60416504      -2.25651539       0.00000000
Si       0.66244915      -2.52796693      -2.55169368       0.00000000
Si      -2.09308583      -2.11064971       2.17213238       0.00000000
Si      -0.39407139       2.92706542       2.29102364       0.00000000
