10
Lattice="16.2900001489832 0.0 0.0 0.0 16.2900001489832 0.0 0.0 0.0 29.49423432800756" Properties=species:S:1:pos:R:3:initial_magmoms:R:1 pbc="T T T"
Si       1.74914528      -0.78385852       1.32066333       0.00000000
Si      -1.22235111      -1.49481928      -1.29986990       0.00000000
Si       1.31462582       1.39305565      -1.33139923       0.00000000
Si      -1.29848552       0.30345012       1.96113063       0.00000000
H       -0.02845700       2.79769350       1.85144157       0.00000000
Si       0.40790812      -0.61945984       3.34078243       0.00000000
Si      -2.70804311      -0.01746288      -2.46928679       0.00000000
Si      -2.94978671      -1.41227785       1.82873101       0.00000000
Si       2.63786253       2.69089625       0.10927614       0.00000000
Si       2.76371907      -0.08477316      -2.56585092       0.00000000
