10
Lattice="16.2900001489832 0.0 0.0 0.0 16.2900001489832 0.0 0.0 0.0 29.49423432800756" Properties=species:S:1:pos:R:3:initial_magmoms:R:1 pbc="T T T"
Si       1.31737231      -1.35578413      -1.44698714       0.00000000
Si      -1.42012963      -1.29873655       1.40156602       0.00000000
Si       1.31305546       1.35949825       1.44869780       0.00000000
Si      -1.28707291       1.34941474      -1.48117095       0.00000000
Si       2.65225637       2.70635546      -0.04205878       0.00000000
Si       2.70414002      -2.71542899      -0.09331976       0.00000000
Si      -2.70687674       2.71147052      -0.16932640       0.00000000
Si      -2.72241740      -2.72772794      -0.03406584       0.00000000
Si      -0.09391185      -2.81839809       2.65598530       0.00000000
Si      -2.67915116      -0.02503773      -2.80407880       0.00000000
