10
Lattice="16.2900001489832 0.0 0.0 0.0 16.2900001489832 0.0 0.0 0.0 29.49423432800756" Properties=species:S:1:pos:R:3:initial_magmoms:R:1 pbc="T T T"
Si       1.72975367       1.01219545       1.26674787       0.00000000
Si      -1.32621778       1.51966153      -1.25441928       0.00000000
Si       1.35778780      -1.32054886      -1.44887477       0.00000000
Si      -1.37854126      -1.40673925       1.39811519       0.00000000
Si       3.47200176      -0.65086696       1.21454308       0.00000000
Si       2.72192870      -2.57779478       0.04297310       0.00000000
Si      -2.62850555       0.09067014      -2.69005114       0.00000000
Si      -2.66098781      -2.74458810      -0.00917271       0.00000000
Si       0.98456761       1.19237914       3.53506095       0.00000000
Si       0.09391185       2.81839809      -2.65598530       0.00000000
