10
Lattice="16.2900001489832 0.0 0.0 0.0 16.2900001489832 0.0 0.0 0.0 29.49423432800756" Properties=species:S:1:pos:R:3:initial_magmoms:R:1 pbc="T T T"
Si       1.50346927       1.45277479      -1.07742438       0.00000000
Si      -2.05218164       0.15555321      -1.14741420       0.00000000
Si      -0.11922651       0.83012212       2.23209416       0.00000000
Si       0.98616403      -2.18921312      -0.26294110       0.00000000
H        1.97270273       2.09287406       1.83937843       0.00000000
Si       2.97908265       1.80913484       0.71558911       0.00000000
Si      -1.68503762      -1.31487994       2.99213108       0.00000000
Si      -1.56463822      -0.41244651      -3.42566683       0.00000000
Si      -2.75351502       2.39842559      -1.16316412       0.00000000
Si       3.24537528      -2.11911725       0.51113508       0.00000000
