10
Lattice="16.2900001489832 0.0 0.0 0.0 16.2900001489832 0.0 0.0 0.0 29.49423432800756" Properties=species:S:1:pos:R:3:initial_magmoms:R:1 pbc="T T T"
Si      -1.74914528       0.78385852      -1.32066333       0.00000000
Si       0.95788459      -1.93651449      -1.04312259       0.00000000
Si       1.77890060       1.62220708      -0.08137459       0.00000000
Si      -1.34123716       0.16439868       2.02011910       0.00000000
H        1.00462060      -1.90195363       2.09821983       0.00000000
Si      -3.04763080       1.08730864       0.64046730       0.00000000
Si       1.62673570      -2.80484318       1.04822509       0.00000000
Si      -0.43451946       2.17691417      -2.65206256       0.00000000
H        2.85317724      -0.48223287       2.04574959       0.00000000
Si       2.37109097      -0.77318857      -2.56012903       0.00000000
