10
Lattice="16.2900001489832 0.0 0.0 0.0 16.2900001489832 0.0 0.0 0.0 29.49423432800756" Properties=species:S:1:pos:R:3:initial_magmoms:R:1 pbc="T T T"
Si       0.10492389      -1.12145248       2.06270877       0.00000000
Si       0.11922651      -0.83012212      -2.23209416       0.00000000
Si      -0.94719835       2.16984431       0.45710164       0.00000000
H        2.09192924       1.26275194      -0.39271573       0.00000000
Si      -1.56581110      -2.14500206       0.76003692       0.00000000
Si       3.09830916       0.97901272      -1.51650505       0.00000000
Si      -2.55682955       1.48954132       2.10364677       0.00000000
Si      -1.17634978       0.18582003       3.53725444       0.00000000
Si       1.62269578       0.62265268      -3.30951854       0.00000000
Si      -3.65479185      -1.37697742       0.08851220       0.00000000
