10
Lattice="16.2900001489832 0.0 0.0 0.0 16.2900001489832 0.0 0.0 0.0 29.49423432800756" Properties=species:S:1:pos:R:3:initial_magmoms:R:1 pbc="T T T"
Si      -1.25848396      -1.65149651      -1.10326133       0.00000000
Si       1.68555890       1.10605843      -1.21123972       0.00000000
Si       0.99849556      -0.80312959       2.03312606       0.00000000
Si      -1.70852780       1.74825911       0.09432256       0.00000000
Si      -1.19291671       2.37527750       2.32488302       0.00000000
Si       0.32734755       2.40316598      -2.66678019       0.00000000
Si      -2.41518800      -0.33350517      -2.68261859       0.00000000
Si      -0.89169832      -1.48411675       3.27913948       0.00000000
Si       1.83153359       1.15189849       3.14644492       0.00000000
Si       2.90867727       2.49509045       0.34758955       0.00000000
