10
Lattice="16.2900001489832 0.0 0.0 0.0 16.2900001489832 0.0 0.0 0.0 29.49423432800756" Properties=species:S:1:pos:R:3:initial_magmoms:R:1 pbc="T T T"
Si      -0.92220949      -2.15151806       0.29305471       0.00000000
Si       1.73126864      -0.95933440      -1.52234490       0.00000000
Si       1.58983885       0.10282248       2.00602085       0.00000000
Si      -0.81057412       0.92580958      -2.27763326       0.00000000
H        0.32325876       2.67357998      -0.50927694       0.00000000
Si      -2.09041427       0.84936061       1.59773217       0.00000000
Si      -1.79299145      -2.66212811      -1.87544988       0.00000000
Si      -2.09000702       2.81355996      -1.44819640       0.00000000
Si       2.45938277      -2.90543556      -0.51470388       0.00000000
Si       0.78074713      -3.66624372       0.85297326       0.00000000
