10
Lattice="16.2900001489832 0.0 0.0 0.0 16.2900001489832 0.0 0.0 0.0 29.49423432800756" Properties=species:S:1:pos:R:3:initial_magmoms:R:1 pbc="T T T"
Si      -1.52244712      -1.40789584       1.07709994       0.00000000
Si      -1.28953270       1.32199867      -1.58003563       0.00000000
Si       0.94485259       1.55556469       1.62749185       0.00000000
Si       1.42876333      -1.55339812      -1.26668888       0.00000000
Si       1.99202267       2.78208768      -0.04745622       0.00000000
Si      -2.18460305      -2.87288814      -0.74151455       0.00000000
Si      -0.49751289      -2.27134730       3.11084538       0.00000000
Si       3.59505642      -0.56466028      -1.45223711       0.00000000
Si      -2.86783824       2.64486071      -0.43554136       0.00000000
Si       0.41897880      -1.96748993      -3.37284266       0.00000000
