10
Lattice="16.2900001489832 0.0 0.0 0.0 16.2900001489832 0.0 0.0 0.0 29.49423432800756" Properties=species:S:1:pos:R:3:initial_magmoms:R:1 pbc="T T T"
Si       0.44401653      -2.10753506      -0.85468392       0.00000000
Si       2.03841659       0.52616700       1.04270967       0.00000000
Si      -0.79053742      -0.42754734       2.22445515       0.00000000
Si       0.14279814       1.75185920      -1.80894038       0.00000000
Si      -1.82148266       1.62645877       1.95231185       0.00000000
H       -1.97045471      -1.37422441       2.22943968       0.00000000
Si       3.16724844       0.52848018      -0.98737848       0.00000000
Si       2.33421041      -1.42654789      -2.10069735       0.00000000
Si      -0.53152641       3.39190546       1.14986222       0.00000000
Si       1.71159032       2.75874411       1.64017437       0.00000000
