10
Lattice="16.2900001489832 0.0 0.0 0.0 16.2900001489832 0.0 0.0 0.0 29.49423432800756" Properties=species:S:1:pos:R:3:initial_magmoms:R:1 pbc="T T T"
Si      -1.15947334      -1.48458916       1.36493418       0.00000000
Si      -1.30264615       1.20027979      -1.54647119       0.00000000
Si       0.84675421       1.48116826       1.62327417       0.00000000
Si       1.81571600      -1.18239337      -0.93154590       0.00000000
Si       2.12208203      -0.02450016       2.89751358       0.00000000
Si       3.25195644      -1.12396114       1.08229093       0.00000000
Si      -2.73777887      -0.16172712       2.50942845       0.00000000
Si       2.60521085       0.23713353      -2.64819882       0.00000000
Si       0.19784205       2.68752422      -2.56930174       0.00000000
Si      -2.56951946      -2.70044219      -0.11272696       0.00000000
