10
Lattice="16.2900001489832 0.0 0.0 0.0 16.2900001489832 0.0 0.0 0.0 29.49423432800756" Properties=species:S:1:pos:R:3:initial_magmoms:R:1 pbc="T T T"
Si      -1.13334418       1.39645212      -1.47444627       0.00000000
Si       1.21736800       1.51189772       1.31054681       0.00000000
Si       1.45580473      -1.29212281      -1.34119132       0.00000000
Si      -1.25776720      -1.55455471       1.30099068       0.00000000
H        0.25787070       2.15378237       2.32921867       0.00000000
Si      -2.87753079       2.16119106       0.06125952       0.00000000
Si      -2.12872835      -2.93501820      -0.45503705       0.00000000
Si      -1.95563081      -0.01135413      -3.14240421       0.00000000
Si       2.81386947       0.28502613       2.45769556       0.00000000
Si       0.31130190      -2.40502304       2.89182119       0.00000000
