10
Lattice="16.2900001489832 0.0 0.0 0.0 16.2900001489832 0.0 0.0 0.0 29.49423432800756" Properties=species:S:1:pos:R:3:initial_magmoms:R:1 pbc="T T T"
Si       1.38254860      -1.27036328       1.45338739       0.00000000
Si      -1.37331217       1.26493643       1.47477070       0.00000000
Si       1.39562947       1.43547644      -1.28601645       0.00000000
Si      -1.36808308      -1.36399266      -1.42122687       0.00000000
Si      -0.11989440       2.69739759      -2.63264651       0.00000000
Si      -2.67445964      -2.74502630       0.00053090       0.00000000
Si      -2.76553704       2.65391958       0.17649350       0.00000000
Si       2.70806591      -2.72195966       0.15045009       0.00000000
Si       2.88686496       0.09027592      -2.54784763       0.00000000
Si       0.08490348      -2.66621528       2.80071350       0.00000000
