10
Lattice="16.2900001489832 0.0 0.0 0.0 16.2900001489832 0.0 0.0 0.0 29.49423432800756" Properties=species:S:1:pos:R:3:initial_magmoms:R:1 pbc="T T T"
Si       1.56952522       1.70238647      -0.02170776       0.00000000
Si       1.06279219      -2.10538478       0.09597424       0.00000000
Si      -1.46860867       0.52901775      -1.79581545       0.00000000
Si      -1.11993751       0.19710900       2.13874491       0.00000000
Si      -3.25881453      -0.70113138      -0.90113734       0.00000000
Si       1.89107354       2.11390445       2.20336678       0.00000000
Si      -3.37914876       0.12701313       1.36466873       0.00000000
Si      -0.73875151      -3.60681780       0.18787827       0.00000000
Si       2.24533217      -2.02073182       2.26273867       0.00000000
Si      -0.25932051       2.19424673       3.15022018       0.00000000
