10
Lattice="16.2900001489832 0.0 0.0 0.0 16.2900001489832 0.0 0.0 0.0 29.49423432800756" Properties=species:S:1:pos:R:3:initial_magmoms:R:1 pbc="T T T"
Si      -0.02757897      -1.17574216      -2.03878895       0.00000000
Si      -1.88385707       0.87995323       1.16198435       0.00000000
Si       0.98547985      -1.64609832       1.41738141       0.00000000
Si       1.22227129       2.01565946      -0.50031070       0.00000000
Si      -0.62411878       2.21938220       2.70463014       0.00000000
Si       2.38264058      -0.38773947       2.78942901       0.00000000
Si       2.61014672      -2.74041786       0.16608203       0.00000000
Si       0.71024401       2.44797977      -2.81233423       0.00000000
Si      -0.15037299       0.45084204      -3.82380950       0.00000000
Si       1.82226458      -2.74400166      -2.00616832       0.00000000
