10
Lattice="16.2900001489832 0.0 0.0 0.0 16.2900001489832 0.0 0.0 0.0 29.49423432800756" Properties=species:S:1:pos:R:3:initial_magmoms:R:1 pbc="T T T"
Si      -1.38676771       1.35964486      -1.35366738       0.00000000
Si       1.38116395      -1.31556412      -1.42766841       0.00000000
Si       1.36026388       1.41483538       1.35192722       0.00000000
Si      -1.44026407      -1.42351795       1.30043029       0.00000000
Si       2.71629236      -2.64064160       0.01073590       0.00000000
Si      -2.70414002       2.71542899       0.09331976       0.00000000
Si      -2.74541889      -0.04603554      -2.71675522       0.00000000
Si      -0.02140506       2.68653053      -2.78082849       0.00000000
Si      -0.07612317      -2.68076387       2.79227815       0.00000000
Si       2.72337851       2.75514402      -0.04197030       0.00000000
