10
Lattice="16.2900001489832 0.0 0.0 0.0 16.2900001489832 0.0 0.0 0.0 29.49423432800756" Properties=species:S:1:pos:R:3:initial_magmoms:R:1 pbc="T T T"
Si       1.30276018      -1.28278864      -1.51491236       0.00000000
Si      -1.44858826       1.37730322      -1.32482202       0.00000000
Si      -1.12580191      -1.78839767       1.14921335       0.00000000
Si       1.76816549       0.98254765       1.33921520       0.00000000
Si       2.56991042      -2.54650169       0.04459528       0.00000000
Si       0.61644619      -3.45146007       1.09700855       0.00000000
Si       2.66045024       2.72526815      -0.05105452       0.00000000
Si       3.57236445      -0.74621233       1.39283572       0.00000000
Si      -2.76164373       0.01780497      -2.77351982       0.00000000
Si      -0.10938735       2.72416043      -2.81557860       0.00000000
