10
Lattice="16.2900001489832 0.0 0.0 0.0 16.2900001489832 0.0 0.0 0.0 29.49423432800756" Properties=species:S:1:pos:R:3:initial_magmoms:R:1 pbc="T T T"
Si      -1.02908818       1.09667539      -1.79425225       0.00000000
Si      -1.40092372      -0.14229315       1.87444707       0.00000000
Si       1.04747959       1.95035285       0.83943540       0.00000000
Si       0.45701595      -2.27590850      -0.62495333       0.00000000
H        2.90550072       0.77963941      -0.09364419       0.00000000
H        0.61256917      -2.07715421      -2.13166629       0.00000000
Si      -2.35001171       2.50499477      -0.41023531       0.00000000
Si      -1.00621702       3.04750065       1.42519090       0.00000000
Si      -0.18309960      -1.50904045       3.23180123       0.00000000
Si      -3.43961724      -0.78340240       1.13915581       0.00000000
