10
Lattice="16.2900001489832 0.0 0.0 0.0 16.2900001489832 0.0 0.0 0.0 29.49423432800756" Properties=species:S:1:pos:R:3:initial_magmoms:R:1 pbc="T T T"
Si       1.79040134       1.35524656      -0.66674666       0.00000000
Si      -2.04033881       0.46066491      -1.10635822       0.00000000
Si      -0.70895710       0.92056420       2.11228858       0.00000000
Si       0.68427775      -2.31941909      -0.23371231       0.00000000
H        0.00250866      -0.68610223      -3.59670390       0.00000000
H        2.16924158      -0.86578093      -2.84185796       0.00000000
Si      -2.36235953       2.77161321      -0.60477927       0.00000000
Si       3.48420297       1.02853432       0.81988073       0.00000000
Si       2.52312554       0.58497391      -2.71432489       0.00000000
Si      -1.35257500       3.18570501       1.50137450       0.00000000
