10
Lattice="16.2900001489832 0.0 0.0 0.0 16.2900001489832 0.0 0.0 0.0 29.49423432800756" Properties=species:S:1:pos:R:3:initial_magmoms:R:1 pbc="T T T"
Si      -1.29195991       1.48252033       1.29957495       0.00000000
Si       1.34086249      -1.34490241       1.42575129       0.00000000
Si      -1.42897510      -1.34601013      -1.33877279       0.00000000
Si       1.34304535       1.36544410      -1.42713752       0.00000000
Si       2.71630865      -2.61042365      -0.06184941       0.00000000
Si       2.63640620       0.18539649       2.71276170       0.00000000
Si      -2.65017125       2.77962789      -0.15596551       0.00000000
Si       2.64349235       2.79109605      -0.04866549       0.00000000
Si      -0.06690303      -2.67074552      -2.77346083       0.00000000
Si      -2.76817602      -2.69286734       0.15198379       0.00000000
