10
Lattice="16.2900001489832 0.0 0.0 0.0 16.2900001489832 0.0 0.0 0.0 29.49423432800756" Properties=species:S:1:pos:R:3:initial_magmoms:R:1 pbc="T T T"
Si       0.47838843       1.23652504       2.12612138       0.00000000
Si      -2.32477850      -0.94240909       0.34384378       0.00000000
Si      -0.87390964       1.67162443      -1.70028362       0.00000000
Si       1.77681548      -0.82259614      -1.63344969       0.00000000
Si       0.69967180      -2.16578810       1.16540568       0.00000000
Si      -3.41309712       1.05184368       0.93983378       0.00000000
Si      -2.36933165       2.87678145      -0.34092385       0.00000000
Si      -2.84038959      -1.56942748      -1.88671668       0.00000000
Si       2.90276400      -1.69445324       1.81758219       0.00000000
Si      -2.15632361       0.32044059      -3.17531977       0.00000000
