10
Lattice="16.2900001489832 0.0 0.0 0.0 16.2900001489832 0.0 0.0 0.0 29.49423432800756" Properties=species:S:1:pos:R:3:initial_magmoms:R:1 pbc="T T T"
Si       0.18598293      -2.16046127      -0.90848141       0.00000000
Si       1.80255368       1.04132197      -1.09394115       0.00000000
Si      -2.22138587       0.28992942      -0.82958433       0.00000000
Si       0.01055592       0.50565789       2.35691376       0.00000000
H        2.31348953      -1.56064717       0.93523268       0.00000000
Si      -0.60351193      -3.57998817       0.80817151       0.00000000
Si      -1.19742904      -2.10698120      -2.88990407       0.00000000
Si      -1.57247371      -0.91642654       3.36299159       0.00000000
Si      -2.41922792      -2.39759480       1.73971741       0.00000000
Si      -0.61375834       2.79714615       2.57758962       0.00000000
