10
Lattice="16.2900001489832 0.0 0.0 0.0 16.2900001489832 0.0 0.0 0.0 29.49423432800756" Properties=species:S:1:pos:R:3:initial_magmoms:R:1 pbc="T T T"
Si       1.80154370       1.50143302      -0.09190403       0.00000000
Si       0.70413526      -1.87147667      -1.27662844       0.00000000
Si      -1.89574877       0.61419817      -1.30969148       0.00000000
Si      -0.92989837      -0.73428805       2.07285479       0.00000000
H        0.40718484      -1.45210690      -2.73137256       0.00000000
Si      -2.20345058      -2.31355469       0.97062576       0.00000000
H        1.10319139      -3.20017053       1.08630214       0.00000000
Si      -3.47877840      -0.80788627      -0.30361365       0.00000000
Si       2.98641315       0.50660271      -2.00546046       0.00000000
H        3.01026171      -1.44565606       1.47541958       0.00000000
