10
Lattice="16.2900001489832 0.0 0.0 0.0 16.2900001489832 0.0 0.0 0.0 29.49423432800756" Properties=species:S:1:pos:R:3:initial_magmoms:R:1 pbc="T T T"
Si      -0.51823377       1.52247645       1.69597746       0.00000000
Si       1.20920182       1.43993502      -1.43262344       0.00000000
Si      -1.62403156      -1.11601325      -1.34756207       0.00000000
Si       0.92579329      -1.86351411       1.22934918       0.00000000
H       -1.83146843       2.19888612       1.42386366       0.00000000
Si      -1.04839183      -3.29758799       1.32420264       0.00000000
Si      -0.25858746      -2.50584511      -2.77098332       0.00000000
Si       2.59365636      -2.78736889      -0.16785169       0.00000000
Si       2.43155294       2.93475430      -0.13275355       0.00000000
Si       2.58672659       0.12756862      -2.80121491       0.00000000
