10
Lattice="16.2900001489832 0.0 0.0 0.0 16.2900001489832 0.0 0.0 0.0 29.49423432800756" Properties=species:S:1:pos:R:3:initial_magmoms:R:1 pbc="T T T"
Si       1.58307850      -1.24367635      -1.14337349       0.00000000
Si      -1.25520967      -1.43255890       1.33032564       0.00000000
Si      -1.15843078       1.36404316      -1.60439786       0.00000000
Si       1.45771066       1.36503685       1.37301560       0.00000000
Si       0.93597454       2.16872030      -2.35440675       0.00000000
Si       2.60596019       0.45766755      -2.29996039       0.00000000
Si      -2.40782492       2.78242977      -0.17982635       0.00000000
Si      -2.51449184       0.02259423       2.72424085       0.00000000
Si       0.27455166      -2.71094924       2.61289422       0.00000000
Si      -2.72634329      -2.64753227      -0.13331394       0.00000000
