10
Lattice="16.2900001489832 0.0 0.0 0.0 16.2900001489832 0.0 0.0 0.0 29.49423432800756" Properties=species:S:1:pos:R:3:initial_magmoms:R:1 pbc="T T T"
Si       1.72024845       1.36498798      -0.68016654       0.00000000
Si      -0.96312997      -0.66207448      -2.01271604       0.00000000
Si       1.05416346      -1.66786796       1.26217626       0.00000000
Si      -1.48571317       1.35285193       1.20855575       0.00000000
H       -2.08946945      -1.43224939       0.19911558       0.00000000
H       -0.32808060       0.18555939      -3.13364442       0.00000000
Si       2.23264878       2.56187945       1.37838355       0.00000000
Si       2.01881972      -3.04441206      -0.36015410       0.00000000
Si      -2.35271585      -2.59152725       1.15160238       0.00000000
Si      -0.94301182       1.05495670       3.45256558       0.00000000
