10
Lattice="16.2900001489832 0.0 0.0 0.0 16.2900001489832 0.0 0.0 0.0 29.49423432800756" Properties=species:S:1:pos:R:3:initial_magmoms:R:1 pbc="T T T"
Si      -0.32154831      -0.41151798      -2.22507453       0.00000000
Si       1.06701130      -1.94810483       0.76390067       0.00000000
Si      -2.15039405       0.08034228       0.94685340       0.00000000
Si       1.21332808       2.02256642       0.16867753       0.00000000
Si       1.58822614       1.11444778       2.33906975       0.00000000
Si       2.55265931      -1.50783499      -1.12081040       0.00000000
Si       0.66321478      -0.98451874       2.98909318       0.00000000
Si      -0.55975699       1.76306672      -2.94558918       0.00000000
Si      -3.01101105      -1.91679545      -0.06462187       0.00000000
Si      -0.10386504       3.34277319      -1.29984040       0.00000000
