10
Lattice="16.2900001489832 0.0 0.0 0.0 16.2900001489832 0.0 0.0 0.0 29.49423432800756" Properties=species:S:1:pos:R:3:initial_magmoms:R:1 pbc="T T T"
Si      -1.27876501       1.43845588       1.35539279       0.00000000
Si       1.46813692       1.46707741      -1.14341183       0.00000000
Si       1.45262509      -1.31865922       1.33938037       0.00000000
Si      -1.45771066      -1.36503685      -1.37301560       0.00000000
Si       0.12536784      -2.60871320      -2.51638908       0.00000000
Si       2.81977133       0.10704159      -2.42522241       0.00000000
Si      -2.51869466       2.78971140      -0.15769387       0.00000000
Si       0.09052353      -2.68545539       2.70164237       0.00000000
Si      -2.64060902       0.06807591       2.74862669       0.00000000
Si      -0.52173612       0.80368345      -3.72742235       0.00000000
