10
Lattice="16.2900001489832 0.0 0.0 0.0 16.2900001489832 0.0 0.0 0.0 29.49423432800756" Properties=species:S:1:pos:R:3:initial_magmoms:R:1 pbc="T T T"
Si      -1.34086249       1.34490241      -1.42575129       0.00000000
Si       1.29554371       1.53029890       1.28701041       0.00000000
Si       1.37544616      -1.26552124      -1.48760070       0.00000000
Si      -0.89228476      -1.74272051       1.39026972       0.00000000
H        2.11061387       0.73179568       2.25158985       0.00000000
Si       2.63532781      -2.57035025       0.02338893       0.00000000
Si       2.69789590       2.67423158      -0.24267856       0.00000000
Si      -2.66045024      -2.72526815       0.05105452       0.00000000
Si      -2.63282240       2.82742275      -0.12617633       0.00000000
Si       0.91191421      -3.47148048       1.44389024       0.00000000
