10
Lattice="16.2900001489832 0.0 0.0 0.0 16.2900001489832 0.0 0.0 0.0 29.49423432800756" Properties=species:S:1:pos:R:3:initial_magmoms:R:1 pbc="T T T"
Si      -1.35630541       0.34090083       0.53216447       0.00000000
H       -0.17348850      -2.29874708       1.31892317       0.00000000
Si       1.28544391      -2.63886599       0.92387740       0.00000000
H        2.65518532       1.47675367      -0.50977835       0.00000000
Si      -0.89013448       2.44338599       1.66804642       0.00000000
Si      -2.81422785      -0.20062764      -1.40436797       0.00000000
H        1.08043426       1.47846412      -2.63958650       0.00000000
Si      -2.03150963      -1.12803364       2.25200277       0.00000000
Si       2.93316928       1.30489417       0.97873667       0.00000000
H        2.30873937       0.39267045      -2.47574603       0.00000000
