10
Lattice="16.2900001489832 0.0 0.0 0.0 16.2900001489832 0.0 0.0 0.0 29.49423432800756" Properties=species:S:1:pos:R:3:initial_magmoms:R:1 pbc="T T T"
Si      -0.26420751       0.36857754      -2.23707869       0.00000000
Si      -2.09440532      -0.80467714       0.75000888       0.00000000
Si       0.94853413       1.95996395       0.93824109       0.00000000
Si       1.66998566      -1.71105275       0.05444636       0.00000000
H       -0.20909844      -1.00879084      -2.85392110       0.00000000
Si       1.98987304       0.66339397       2.58401052       0.00000000
Si      -0.93597454      -2.16872030       2.35440675       0.00000000
Si      -2.48489291       1.13438674      -2.29376660       0.00000000
Si       2.63763121       2.36925020      -0.79481063       0.00000000
Si       3.34150746      -0.69664186       1.30219994       0.00000000
