10
Lattice="16.2900001489832 0.0 0.0 0.0 16.2900001489832 0.0 0.0 0.0 29.49423432800756" Properties=species:S:1:pos:R:3:initial_magmoms:R:1 pbc="T T T"
Si       1.30044700       1.42565194       1.37847203       0.00000000
Si      -1.37005417       1.35843940      -1.37909141       0.00000000
Si       1.38546451      -1.28979334      -1.43855179       0.00000000
Si      -1.34304535      -1.36544410       1.42713752       0.00000000
Si       2.69571304      -0.03611493       2.61021024       0.00000000
Si      -2.63500526       0.11707623       2.72671247       0.00000000
Si       0.02658528       2.72712522      -2.67644250       0.00000000
Si      -0.04810437      -2.66580965      -2.73955721       0.00000000
Si       2.73297332      -2.68584635      -0.08759788       0.00000000
Si       2.74119815       2.73790920      -0.00268398       0.00000000
