10
Lattice="16.2900001489832 0.0 0.0 0.0 16.2900001489832 0.0 0.0 0.0 29.49423432800756" Properties=species:S:1:pos:R:3:initial_magmoms:R:1 pbc="T T T"
Si       0.27798397      -0.17185950       1.48851502       0.00000000
H       -0.34644595      -1.08408322      -1.96596768       0.00000000
H       -1.57475106       0.00171045      -2.12980816       0.00000000
H       -2.65518532      -1.47675367       0.50977835       0.00000000
Si       0.23709444      -2.43493148       2.04374398       0.00000000
Si      -1.26911807       0.93314008       2.87085079       0.00000000
Si       1.94831986       1.76067209      -2.01593092       0.00000000
Si       2.56681858       0.38045295       2.12800901       0.00000000
Si       0.41455933      -1.96819040      -2.96747390       0.00000000
Si       2.11832230      -3.09000126       0.75042180       0.00000000
