10
Lattice="16.2900001489832 0.0 0.0 0.0 16.2900001489832 0.0 0.0 0.0 29.49423432800756" Properties=species:S:1:pos:R:3:initial_magmoms:R:1 pbc="T T T"
Si       2.27620172      -0.03349224       0.69302602       0.00000000
Si      -0.42380064       1.64788013      -1.67553796       0.00000000
Si      -0.46617093      -2.10248516      -1.13588195       0.00000000
Si      -1.04365144       0.24485499       2.21740603       0.00000000
H        0.89013448      -2.44338599      -1.66804642       0.00000000
Si      -3.24881247      -0.19205910       1.59628695       0.00000000
Si      -2.62689284       1.17654526      -2.32771447       0.00000000
Si       3.06909467       2.15630732       0.15354698       0.00000000
Si      -1.14137515      -3.57141963       0.58395635       0.00000000
Si       2.38260800      -1.02379393       2.97060029       0.00000000
