10
Lattice="16.2900001489832 0.0 0.0 0.0 16.2900001489832 0.0 0.0 0.0 29.49423432800756" Properties=species:S:1:pos:R:3:initial_magmoms:R:1 pbc="T T T"
Si       1.54710204      -1.10499958      -1.38233577       0.00000000
Si      -2.27620172       0.03349224      -0.69302602       0.00000000
Si       0.79289295       2.18979956      -0.53947904       0.00000000
Si       0.10640628      -0.99030169       2.27757427       0.00000000
H        2.25018659      -0.01821222       1.91913084       0.00000000
H        1.26911807      -0.93314008      -2.87085079       0.00000000
H       -1.38606724      -2.40989375      -2.36107245       0.00000000
Si      -3.31985316       0.27834723       1.52438001       0.00000000
Si      -0.25311402       3.53809029       1.02719570       0.00000000
Si       1.57983028      -3.02663316       1.62324468       0.00000000
