10
Lattice="16.2900001489832 0.0 0.0 0.0 16.2900001489832 0.0 0.0 0.0 29.49423432800756" Properties=species:S:1:pos:R:3:initial_magmoms:R:1 pbc="T T T"
Si       1.04600697      -1.34829073      -1.56667474       0.00000000
Si       1.37163430       1.83022387      -0.48789362       0.00000000
Si       0.87865492      -0.62608987       2.07545028       0.00000000
Si      -2.31883265       0.35034447      -0.13136732       0.00000000
Si       3.22561551      -0.81019945      -0.73915501       0.00000000
Si       0.40697804       3.20676798       1.13443673       0.00000000
Si       1.21144984       1.84456070      -2.83675546       0.00000000
Si      -1.22735377       2.26391906       2.55181166       0.00000000
Si      -2.66971925       0.40039273      -2.48031764       0.00000000
Si       0.25311402      -3.53809029      -1.02719570       0.00000000
