10
Lattice="16.2900001489832 0.0 0.0 0.0 16.2900001489832 0.0 0.0 0.0 29.49423432800756" Properties=species:S:1:pos:R:3:initial_magmoms:R:1 pbc="T T T"
H        2.23120874       0.20696445      -0.43032088       0.00000000
Si      -0.13162320       2.31746429      -0.51936397       0.00000000
Si      -2.41390109      -0.06061509       0.20946805       0.00000000
Si       1.17843490       0.34593444       2.13998367       0.00000000
Si       0.41246280      -1.41998302      -1.98543388       0.00000000
H       -0.10777464       0.36520551       2.96151607       0.00000000
H       -2.71085150       0.35875467      -1.24527607       0.00000000
H        0.67678435      -2.64614762       1.37652541       0.00000000
H       -2.01484496      -1.38930895       2.57239864       0.00000000
Si      -1.03397518       2.02934306      -2.85389161       0.00000000
