10
Lattice="16.2900001489832 0.0 0.0 0.0 16.2900001489832 0.0 0.0 0.0 29.49423432800756" Properties=species:S:1:pos:R:3:initial_magmoms:R:1 pbc="T T T"
Si      -1.80154370      -1.50143302       0.09190403       0.00000000
Si      -1.06279219       2.10538478      -0.09597424       0.00000000
Si       1.18486945      -0.99483031      -1.91355643       0.00000000
Si       1.18253998       0.08465296       2.16676443       0.00000000
H        1.20871801      -2.94708909       1.56732361       0.00000000
Si       3.23367906      -0.84481570       1.49600655       0.00000000
Si      -1.09740844      -3.37290969      -1.18472440       0.00000000
Si      -2.18272970       2.30249378       2.04277067       0.00000000
Si       3.26220285       0.15132742      -1.94216584       0.00000000
Si       1.31649265      -3.31229460      -1.39419246       0.00000000
