10
Lattice="16.2900001489832 0.0 0.0 0.0 16.2900001489832 0.0 0.0 0.0 29.49423432800756" Properties=species:S:1:pos:R:3:initial_magmoms:R:1 pbc="T T T"
Si       2.19373522      -0.62967367       0.53478946       0.00000000
Si       0.24748094       2.28876131      -0.65459504       0.00000000
Si      -0.98049511      -0.71848675       2.07545028       0.00000000
Si      -0.51240033      -1.19689147      -2.05855008       0.00000000
H       -2.13790614       1.63900207      -0.67072838       0.00000000
Si      -2.23264878      -2.56187945      -1.37838355       0.00000000
Si       0.17386317       1.94732291      -3.10494653       0.00000000
Si      -3.55116139       1.12842460      -0.45993309       0.00000000
Si       2.50318007       2.79850800       0.02524706       0.00000000
Si       2.39467238      -2.97141006       0.73107359       0.00000000
