10
Lattice="16.2900001489832 0.0 0.0 0.0 16.2900001489832 0.0 0.0 0.0 29.49423432800756" Properties=species:S:1:pos:R:3:initial_magmoms:R:1 pbc="T T T"
Si      -1.72024845      -1.36498798       0.68016654       0.00000000
Si      -0.92057234       1.46352619      -1.65648468       0.00000000
Si       1.78832436      -1.25405308      -0.98932510       0.00000000
Si       0.51240033       1.19689147       2.05855008       0.00000000
H       -2.37950476       1.80364511      -1.26143891       0.00000000
Si       0.68626350       3.14421438      -1.04639645       0.00000000
H       -2.04832905      -1.17942859      -2.45347788       0.00000000
H       -1.62550581       2.83589355       1.38782170       0.00000000
Si      -2.68337842      -2.02706246      -1.33254951       0.00000000
Si       3.31300322       0.48391074      -1.38938490       0.00000000
