10
Lattice="16.2900001489832 0.0 0.0 0.0 16.2900001489832 0.0 0.0 0.0 29.49423432800756" Properties=species:S:1:pos:R:3:initial_magmoms:R:1 pbc="T T T"
Si       0.74767761      -2.17849430      -0.52936252       0.00000000
Si      -2.20869840      -0.35518716       0.78867583       0.00000000
Si       1.07115629       0.89645500       1.93582458       0.00000000
Si      -0.12722734       1.39367467      -2.00838039       0.00000000
H        2.33994205       0.06519258      -0.96797128       0.00000000
H       -0.38493515      -1.59612679       2.57885787       0.00000000
H       -2.20894275       2.67682169       0.56971063       0.00000000
Si       0.54789216      -2.20895660      -2.84474840       0.00000000
Si      -1.83380034      -1.26330580       2.95906805       0.00000000
Si      -3.52589153       0.96501961      -0.67984210       0.00000000
