10
Lattice="16.2900001489832 0.0 0.0 0.0 16.2900001489832 0.0 0.0 0.0 29.49423432800756" Properties=species:S:1:pos:R:3:initial_magmoms:R:1 pbc="T T T"
Si      -1.44886519       0.33282099       0.38021017       0.00000000
Si       2.32360562       0.77553433       0.90570895       0.00000000
Si      -1.82376326       1.24093963      -1.79018205       0.00000000
Si      -0.96780520       1.86934268       2.05580712       0.00000000
Si       1.45609144       2.49258179      -0.64303330       0.00000000
Si       0.38493515       1.59612679      -2.57885787       0.00000000
Si      -2.37387656      -1.76614553       1.03023361       0.00000000
Si       0.69988357       0.57119257       3.00793999       0.00000000
Si       1.13261276      -0.58236751      -3.10822039       0.00000000
Si       3.22250412      -1.12616029      -0.21401016       0.00000000
