10
Lattice="16.2900001489832 0.0 0.0 0.0 16.2900001489832 0.0 0.0 0.0 29.49423432800756" Properties=species:S:1:pos:R:3:initial_magmoms:R:1 pbc="T T T"
Si      -1.48860237      -1.35967744      -1.13351062       0.00000000
Si       1.33538254      -1.40230837       1.32911343       0.00000000
Si      -1.38402611       1.37354023       1.32967087       0.00000000
Si       1.45721545       1.06681582      -1.57016391       0.00000000
H        0.71566206       1.85556134      -2.73114545       0.00000000
Si      -0.13696795      -2.71971326      -2.41532119       0.00000000
Si       2.68904897       2.59761971      -0.24956251       0.00000000
Si      -2.52994128      -0.06310746      -2.77928004       0.00000000
Si       2.67989399      -0.02208924       2.67612101       0.00000000
Si      -0.03198867       2.67921632       2.73711509       0.00000000
