10
Lattice="16.2900001489832 0.0 0.0 0.0 16.2900001489832 0.0 0.0 0.0 29.49423432800756" Properties=species:S:1:pos:R:3:initial_magmoms:R:1 pbc="T T T"
Si      -1.36048868       1.35711991       1.36401985       0.00000000
Si       1.28404623      -1.38178297       1.41681453       0.00000000
Si      -1.41017628      -1.37995849      -1.30395190       0.00000000
Si       1.42932045       1.36314721      -1.32412005       0.00000000
Si       0.05923044      -2.70119153      -2.60090481       0.00000000
Si       0.09393791       2.76545559      -2.65323348       0.00000000
Si       0.01357772       2.68858307       2.73446945       0.00000000
Si       2.65447507      -0.03720636       2.77641025       0.00000000
Si      -2.70799750       2.75317293       0.01306595       0.00000000
Si      -0.16029523      -2.61232958       2.85023432       0.00000000
