10
Lattice="16.2900001489832 0.0 0.0 0.0 16.2900001489832 0.0 0.0 0.0 29.49423432800756" Properties=species:S:1:pos:R:3:initial_magmoms:R:1 pbc="T T T"
H       -1.23820780      -1.05199192       0.22026294       0.00000000
Si       1.42811173      -1.15878916      -1.52190249       0.00000000
Si      -1.10259681       1.62561169      -1.38106752       0.00000000
Si       0.60116617       0.50380083       2.33682819       0.00000000
H       -1.86360208       2.50971887      -0.37956130       0.00000000
Si      -3.01930266      -1.26493480       0.67341236       0.00000000
Si      -2.56719325       0.29336661      -2.77160269       0.00000000
Si       2.31829508      -3.01133685      -0.39188989       0.00000000
Si       0.10487502      -2.45662976      -2.96257786       0.00000000
Si       1.34667802      -1.50143302       3.28716191       0.00000000
