10
Lattice="16.2900001489832 0.0 0.0 0.0 16.2900001489832 0.0 0.0 0.0 29.49423432800756" Properties=species:S:1:pos:R:3:initial_magmoms:R:1 pbc="T T T"
Si       1.40456291       1.32115648       1.35092441       0.00000000
Si      -1.35995274       1.40495224      -1.33204811       0.00000000
Si       1.41421310      -1.33620355      -1.36505215       0.00000000
Si      -1.44075114      -1.31225725       1.38115601       0.00000000
Si       0.02703814       2.63352287       2.71951588       0.00000000
Si      -2.71461287      -0.01078398      -2.67375852       0.00000000
Si      -0.04548510      -2.77402413       2.61289422       0.00000000
Si       0.06217567      -2.64187964      -2.77249637       0.00000000
Si       2.75467323       2.67898826      -0.01784401       0.00000000
Si       0.03690988       2.77060323      -2.69067936       0.00000000
