10
Lattice="16.2900001489832 0.0 0.0 0.0 16.2900001489832 0.0 0.0 0.0 29.49423432800756" Properties=species:S:1:pos:R:3:initial_magmoms:R:1 pbc="T T T"
Si       0.79387687      -2.16777548       0.07568221       0.00000000
Si       1.41004612       1.21585303       1.47766114       0.00000000
Si      -2.13737671       0.06268392       1.06014076       0.00000000
Si       0.19772802       0.22015935      -2.40490088       0.00000000
H       -3.08724336       1.08986617       0.46996113       0.00000000
Si      -0.16825941       2.53871507       2.62215541       0.00000000
Si      -2.05797110      -0.28958733      -3.08474298       0.00000000
Si      -0.11171682      -3.20802231      -1.89535849       0.00000000
Si       2.56951946       2.70044219       0.11272696       0.00000000
Si       3.11855763      -2.07363557      -0.31514589       0.00000000
