10
Lattice="16.2900001489832 0.0 0.0 0.0 16.2900001489832 0.0 0.0 0.0 29.49423432800756" Properties=species:S:1:pos:R:3:initial_magmoms:R:1 pbc="T T T"
Si      -1.35203743      -1.30567609      -1.40744422       0.00000000
Si       1.31716543       1.25791381      -1.52554503       0.00000000
Si      -1.41421310       1.33620355       1.36505215       0.00000000
Si       1.38217882      -1.35021295       1.38684839       0.00000000
Si       2.65683875       2.63672060      -0.10691660       0.00000000
Si      -0.00965020       2.65736003       2.71597657       0.00000000
Si      -0.04837153      -2.75608884       2.65058785       0.00000000
Si       2.71188266      -2.70130556      -0.06099408       0.00000000
Si       0.03198867      -2.67921632      -2.73711509       0.00000000
Si      -0.11583005       2.69562524      -2.74879480       0.00000000
