10
Lattice="16.2900001489832 0.0 0.0 0.0 16.2900001489832 0.0 0.0 0.0 29.49423432800756" Properties=species:S:1:pos:R:3:initial_magmoms:R:1 pbc="T T T"
Si       1.45697778       1.18024309       1.37139341       0.00000000
Si       1.41132668      -1.31826826      -1.32735852       0.00000000
Si      -1.39526604       1.46176687      -1.23173821       0.00000000
Si      -1.40235219      -1.14393268       1.52968897       0.00000000
H       -0.58728204      -1.94243591       2.49426841       0.00000000
Si      -0.21088529       2.10409787       2.76859428       0.00000000
Si      -2.18507041       0.67002400       2.86344774       0.00000000
Si      -2.69571304       0.03611493      -2.61021024       0.00000000
Si       0.03726028      -2.64973142      -2.69780812       0.00000000
Si      -2.69789590      -2.67423158       0.24267856       0.00000000
