10
Lattice="16.28999089631971 0.0 0.0 0.0 16.28999089631971 0.0 0.0 0.0 34.53561885213415" Properties=species:S:1:pos:R:3:initial_magmoms:R:1 pbc="T T T"
Si      -1.79765037      -0.61158036      -1.35557702       0.00000000
Si       1.45398024      -1.23048665       1.36744550       0.00000000
Si       1.80603972       0.93750253      -1.20549753       0.00000000
Si      -1.27514862       1.50255376       1.36750766       0.00000000
Si      -2.64417651      -2.45380572      -0.03525398       0.00000000
Si       0.08822664      -2.58252930       2.74468185       0.00000000
Si      -2.63161692       0.14196409       2.74713388       0.00000000
Si       2.89365786      -2.47683978      -0.25311860       0.00000000
Si       2.74919814       2.70513043       0.10566524       0.00000000
Si      -2.64274299       2.80783888      -0.16521504       0.00000000
