10
Lattice="16.28999089631971 0.0 0.0 0.0 16.28999089631971 0.0 0.0 0.0 34.53561885213415" Properties=species:S:1:pos:R:3:initial_magmoms:R:1 pbc="T T T"
Si       1.29645594      -1.35774381      -1.41868948       0.00000000
Si      -1.42174233       1.36466217      -1.40363194       0.00000000
Si       1.88211402       0.93175542       1.22318323       0.00000000
Si      -0.89922429      -1.91248835       1.40463347       0.00000000
Si       2.63979450      -2.66985525       0.08464685       0.00000000
Si       2.64818385       0.00418653      -2.78488479       0.00000000
Si      -2.80275966       2.63995740       0.07767065       0.00000000
Si       2.71002069       2.77733097      -0.04427469       0.00000000
Si      -0.06750576      -2.70598453      -2.78498840       0.00000000
Si      -0.06416631       2.71871955      -2.78153483       0.00000000
