10
Lattice="16.28999089631971 0.0 0.0 0.0 16.28999089631971 0.0 0.0 0.0 34.53561885213415" Properties=species:S:1:pos:R:3:initial_magmoms:R:1 pbc="T T T"
Si       1.50493536      -1.67394967      -0.63369442       0.00000000
Si      -2.33829918       0.38029331      -0.00138143       0.00000000
Si       0.60362595       1.61991181      -1.64914579       0.00000000
Si       0.75517182      -0.10768179       2.26595229       0.00000000
Si       0.95462658       3.38850082      -0.10547184       0.00000000
Si      -0.55314324       3.15887698       1.71745729       0.00000000
Si       3.56490360      -0.82450762       0.11717942       0.00000000
Si      -0.30418317      -1.96599679       3.24089336       0.00000000
Si       1.82967651      -1.46239144      -3.02407862       0.00000000
Si       3.10454820      -0.27568381       2.31043419       0.00000000
