10
Lattice="16.28999089631971 0.0 0.0 0.0 16.28999089631971 0.0 0.0 0.0 34.53561885213415" Properties=species:S:1:pos:R:3:initial_magmoms:R:1 pbc="T T T"
Si      -1.87102867      -0.93151384       1.19593461       0.00000000
Si       1.89539037       0.80436226       1.28455306       0.00000000
Si      -1.33303025       1.37943999      -1.52550821       0.00000000
Si       1.35668007      -1.34128879      -1.54208531       0.00000000
Si       0.61436106      -2.68725004       1.12897001       0.00000000
Si       2.75729427      -2.59200241      -0.13907501       0.00000000
Si      -2.61503663       2.82299625      -0.09424776       0.00000000
Si       2.79461466       2.71685061      -0.12008041       0.00000000
Si      -3.69425339       0.92578792       0.92531335       0.00000000
Si      -2.70124757       0.00532406      -2.89957764       0.00000000
