10
Lattice="16.28999089631971 0.0 0.0 0.0 16.28999089631971 0.0 0.0 0.0 34.53561885213415" Properties=species:S:1:pos:R:3:initial_magmoms:R:1 pbc="T T T"
Si       0.37221021       1.03236246      -1.99167025       0.00000000
Si      -2.23477623      -0.11401371       0.42689502       0.00000000
Si       1.47875733       0.09588294       1.77295606       0.00000000
Si      -2.05086213      -2.34919719      -0.16673806       0.00000000
Si      -0.66101562      -2.52561789      -2.05504315       0.00000000
Si       2.52780075       2.07985833       1.06929243       0.00000000
Si       1.92207339       2.67387318      -1.43015531       0.00000000
Si      -0.04859307       0.01133784       3.64575464       0.00000000
Si      -2.32327980       0.00659745       2.84639276       0.00000000
Si      -0.76963734      -3.35181411       1.51597637       0.00000000
