10
Lattice="16.28999089631971 0.0 0.0 0.0 16.28999089631971 0.0 0.0 0.0 34.53561885213415" Properties=species:S:1:pos:R:3:initial_magmoms:R:1 pbc="T T T"
Si       0.20546577       2.01445398      -1.15400835       0.00000000
Si      -0.05146011      -1.78544916      -1.54491724       0.00000000
Si       1.96794603      -0.43660458       1.30240799       0.00000000
Si      -1.95106959      -0.46418355       1.36439946       0.00000000
Si       0.99022023      -2.36395593       2.19798615       0.00000000
Si       0.87560379      -3.34977786       0.04707207       0.00000000
Si      -0.77991633      -1.22510574       3.21640759       0.00000000
Si       2.26116603       1.84072113      -2.35053007       0.00000000
Si       0.91499301       3.60194706       0.52217885       0.00000000
Si      -2.32614684      -1.79018955      -2.34427912       0.00000000
