10
Lattice="16.28999089631971 0.0 0.0 0.0 16.28999089631971 0.0 0.0 0.0 34.53561885213415" Properties=species:S:1:pos:R:3:initial_magmoms:R:1 pbc="T T T"
Si      -0.74947032       0.15135039      -2.23069140       0.00000000
Si       0.46353195       2.33958609       0.16666899       0.00000000
Si       1.73498274      -1.57780053       0.51720572       0.00000000
Si      -1.98974205      -0.30481848       1.71065376       0.00000000
Si       0.11277567      -2.48875362       2.40547627       0.00000000
Si       1.27663101       0.52760052      -3.40928913       0.00000000
Si      -2.08081944       2.15464572      -2.18596775       0.00000000
Si      -0.85229280       2.96722350       2.12839684       0.00000000
Si       2.67346593       2.45320884       0.99024035       0.00000000
Si       2.33085465       1.03596255       2.87643877       0.00000000
