10
Lattice="16.28999089631971 0.0 0.0 0.0 16.28999089631971 0.0 0.0 0.0 34.53561885213415" Properties=species:S:1:pos:R:3:initial_magmoms:R:1 pbc="T T T"
Si      -1.40061420       1.25071362      -1.40301030       0.00000000
Si       0.94799655       1.60208892       1.45581529       0.00000000
Si       1.33747416      -1.48641363      -1.37182462       0.00000000
Si      -2.14293321      -0.09524763       1.26804503       0.00000000
Si       2.67711489       2.63899777       0.10364145       0.00000000
Si      -0.86190390       3.39636467       1.42362808       0.00000000
Si      -2.75729427       2.59200241       0.13907501       0.00000000
Si      -0.03018537       2.60286849      -2.76599380       0.00000000
Si       2.68514586      -0.11578932      -2.75915574       0.00000000
Si      -2.74308939      -0.11482821      -2.75963924       0.00000000
