10
Lattice="16.28999089631971 0.0 0.0 0.0 16.28999089631971 0.0 0.0 0.0 34.53561885213415" Properties=species:S:1:pos:R:3:initial_magmoms:R:1 pbc="T T T"
Si      -0.94799655      -1.60208892      -1.45581529       0.00000000
Si       1.72911834       1.03690885      -1.35217384       0.00000000
Si      -1.80990045       1.79427575      -0.03218721       0.00000000
Si       0.48397590      -0.96915726       2.43510785       0.00000000
Si      -3.09092976      -1.69733655      -0.18777026       0.00000000
Si      -2.34861075      -0.35137530      -2.85882559       0.00000000
Si       0.38577978       2.34902030      -2.85551017       0.00000000
Si       2.71937115       2.83443461       0.07635830       0.00000000
Si      -2.13789960       2.46484872       2.21749879       0.00000000
Si      -3.70529082       0.98991349      -1.31674028       0.00000000
