10
Lattice="16.28999089631971 0.0 0.0 0.0 16.28999089631971 0.0 0.0 0.0 34.53561885213415" Properties=species:S:1:pos:R:3:initial_magmoms:R:1 pbc="T T T"
Si       2.20993398       0.11362275       0.82357136       0.00000000
Si      -0.57189303       1.09718037      -2.04406082       0.00000000
Si      -0.46353195      -2.33958609      -0.16666899       0.00000000
Si      -1.31582475       0.62763741       1.96172785       0.00000000
Si      -1.21300227      -2.18823570      -2.39736039       0.00000000
Si      -2.54435139      -0.18494037      -2.35263674       0.00000000
Si       1.86732270      -1.30362354       2.70976978       0.00000000
Si      -0.01379763       3.36983152      -1.55541607       0.00000000
Si       3.54651219      -1.09064808      -0.79210940       0.00000000
Si       0.15524370      -0.20437434       3.81832923       0.00000000
