10
Lattice="16.28999089631971 0.0 0.0 0.0 16.28999089631971 0.0 0.0 0.0 34.53561885213415" Properties=species:S:1:pos:R:3:initial_magmoms:R:1 pbc="T T T"
Si      -1.80603972      -0.93750253       1.20549753       0.00000000
Si       0.94315842       1.76762790       1.31116277       0.00000000
Si       0.88951545      -0.42788943      -2.21693383       0.00000000
Si      -0.35205948      -2.16798918       2.57294303       0.00000000
Si       2.12358069       1.57982049      -2.15874128       0.00000000
Si      -1.23235479      -0.11671785      -3.32759995       0.00000000
Si       2.36739312       0.52496154       2.59981521       0.00000000
Si       1.08761814      -3.41434232       0.95237893       0.00000000
Si       2.62309725       2.69557146       0.04127699       0.00000000
Si      -3.60369009      -1.54908289      -0.15007949       0.00000000
