10
Lattice="16.28999089631971 0.0 0.0 0.0 16.28999089631971 0.0 0.0 0.0 34.53561885213415" Properties=species:S:1:pos:R:3:initial_magmoms:R:1 pbc="T T T"
Si       1.42423470      -1.24266636       1.28865244       0.00000000
Si       1.67993883       0.92794356      -1.26988578       0.00000000
Si      -1.31870808       1.50184026       1.27145369       0.00000000
Si      -0.94315842      -1.76762790      -1.31116277       0.00000000
Si       1.18042227      -0.18780741      -3.46990405       0.00000000
Si       0.04748535      -2.56431804       2.63998361       0.00000000
Si      -2.66532093       0.14599098       2.64354078       0.00000000
Si       0.72685980       2.65098573      -2.63845856       0.00000000
Si       2.77148286      -2.60833199      -0.24757563       0.00000000
Si       2.76778503       0.14745708       2.64288461       0.00000000
