10
Lattice="16.28999089631971 0.0 0.0 0.0 16.28999089631971 0.0 0.0 0.0 34.53561885213415" Properties=species:S:1:pos:R:3:initial_magmoms:R:1 pbc="T T T"
Si       0.87920388       0.66078756       2.06820123       0.00000000
Si       0.99147456      -2.09824811      -0.34787748       0.00000000
Si       1.62948870       0.97451667      -1.41827505       0.00000000
Si      -2.19930964       0.31679163      -0.84184072       0.00000000
Si       2.11409991      -1.56510899      -2.35722998       0.00000000
Si       2.65914702      -0.82811844       2.41697664       0.00000000
Si      -1.96902443      -0.06551838      -3.22410904       0.00000000
Si      -0.44424459      -0.31879530       3.77374372       0.00000000
Si      -3.01355945       2.41333092      -0.05145810       0.00000000
Si       2.14757586      -2.93471585       1.51922272       0.00000000
