10
Lattice="16.28999089631971 0.0 0.0 0.0 16.28999089631971 0.0 0.0 0.0 34.53561885213415" Properties=species:S:1:pos:R:3:initial_magmoms:R:1 pbc="T T T"
Si       2.19930964      -0.31679163       0.84184072       0.00000000
Si      -0.81424980       2.09653929       0.79038261       0.00000000
Si       0.23028521      -0.38231001      -2.38226832       0.00000000
Si      -1.99320597      -1.19337282       0.70563216       0.00000000
Si      -3.02556843      -1.13005359      -1.45046227       0.00000000
Si      -1.93614210       0.32865075      -2.95863358       0.00000000
Si      -0.75034413       2.08445211       3.22890949       0.00000000
Si       3.82879834       0.65772504      -0.57643434       0.00000000
Si      -2.90285586       2.77202043      -0.31852219       0.00000000
Si       3.19078420      -2.41503974       0.49396323       0.00000000
