10
Lattice="16.28999089631971 0.0 0.0 0.0 16.28999089631971 0.0 0.0 0.0 34.53561885213415" Properties=species:S:1:pos:R:3:initial_magmoms:R:1 pbc="T T T"
Si      -0.49029642      -2.23416698      -0.36276234       0.00000000
Si      -0.42160149       1.18249110      -1.97968639       0.00000000
Si      -1.48177098       0.34536429       1.82289459       0.00000000
Si       2.26040040       0.48319398       0.57284263       0.00000000
Si       0.69885729      -0.58674951      -3.05592048       0.00000000
Si       0.82665234      -2.73425111       1.48689737       0.00000000
Si      -0.67245120       2.54712069       2.04337010       0.00000000
Si       1.99480824      -0.88045821       2.59666556       0.00000000
Si       1.67397669       1.87517448       2.37549933       0.00000000
Si      -2.83967280      -2.06616496      -0.40724425       0.00000000
