10
Lattice="16.28999089631971 0.0 0.0 0.0 16.28999089631971 0.0 0.0 0.0 34.53561885213415" Properties=species:S:1:pos:R:3:initial_magmoms:R:1 pbc="T T T"
Si      -1.67993883      -0.92794356       1.26988578       0.00000000
Si      -0.95307903       1.72304217      -1.36857278       0.00000000
Si       1.05523362       1.79155791       1.24180830       0.00000000
Si      -0.49951656      -1.11575097      -2.20001827       0.00000000
Si       1.99777302      -1.71486459      -0.12847506       0.00000000
Si       1.36357074       1.88590959      -2.09627321       0.00000000
Si      -0.25570413      -2.17060992       2.55853822       0.00000000
Si       1.52233308      -0.32674482      -3.04724655       0.00000000
Si       2.44503126       0.56850471       2.58753779       0.00000000
Si      -1.95633126       0.44908272      -3.15499774       0.00000000
