10
Lattice="16.28999089631971 0.0 0.0 0.0 16.28999089631971 0.0 0.0 0.0 34.53561885213415" Properties=species:S:1:pos:R:3:initial_magmoms:R:1 pbc="T T T"
Si       1.75855437      -1.10863224       1.15987941       0.00000000
Si       0.02911023      -1.16390421      -2.13223030       0.00000000
Si       1.05205707       2.28778389      -0.51641140       0.00000000
Si      -1.40558265      -2.07622566       0.97984513       0.00000000
Si       0.80949897      -3.14045136       0.70176417       0.00000000
Si       1.24092333      -0.26065629       3.25339526       0.00000000
Si       0.83886984       0.54830511      -3.47352541       0.00000000
Si       2.46948255       1.57139856      -2.21117877       0.00000000
Si       1.53655425      -3.02471091      -1.79385012       0.00000000
Si      -3.14620173       1.44692667      -1.87891139       0.00000000
