10
Lattice="16.28999089631971 0.0 0.0 0.0 16.28999089631971 0.0 0.0 0.0 34.53561885213415" Properties=species:S:1:pos:R:3:initial_magmoms:R:1 pbc="T T T"
Si      -1.33998282      -1.75578507      -0.77442715       0.00000000
Si       2.21076477      -0.48200481      -0.67368669       0.00000000
Si      -1.46839689       1.81060092      -0.37833792       0.00000000
Si       0.14608872       0.38286387       2.32663141       0.00000000
Si       2.64290589      -2.04278229       1.19534751       0.00000000
Si      -2.06868339       0.16172712       3.08644998       0.00000000
Si       3.25966158       1.64916702      -0.75536348       0.00000000
Si      -0.43574121      -2.29757418      -2.94723682       0.00000000
Si      -2.99574729       1.72605582       1.49446067       0.00000000
Si       1.66350222      -1.18666134       3.22600850       0.00000000
