10
Lattice="16.28999089631971 0.0 0.0 0.0 16.28999089631971 0.0 0.0 0.0 34.53561885213415" Properties=species:S:1:pos:R:3:initial_magmoms:R:1 pbc="T T T"
Si       0.67476438       0.88967835       2.04364639       0.00000000
Si      -1.67260833       1.65828942      -0.17174573       0.00000000
Si      -1.13710716      -2.06052210       0.29635031       0.00000000
Si       1.62800631       0.16232985      -1.80928755       0.00000000
Si       2.35561545       2.30796720       1.28116857       0.00000000
Si       2.54122371       2.23831116      -1.13256172       0.00000000
Si      -3.41962938       0.31907223      -1.05047051       0.00000000
Si      -2.69410536      -1.91124054      -1.45522818       0.00000000
Si       0.70587828      -3.54836925       0.30826511       0.00000000
Si       1.03457790      -0.84176946       3.48454228       0.00000000
