10
Lattice="16.28999089631971 0.0 0.0 0.0 16.28999089631971 0.0 0.0 0.0 34.53561885213415" Properties=species:S:1:pos:R:3:initial_magmoms:R:1 pbc="T T T"
Si      -1.47398666      -1.83474270       0.14428990       0.00000000
Si       2.21984319      -0.80513325      -0.02790480       0.00000000
Si      -0.23089674       0.93201606       2.17028857       0.00000000
Si      -0.28556600       1.91490579      -1.41457974       0.00000000
Si      -2.19485174       2.77728210      -0.24592828       0.00000000
Si       1.30396400       3.29536926      -0.33268180       0.00000000
Si      -2.26691870       2.03361102       1.95540783       0.00000000
Si      -0.24174050      -3.59387441      -0.82384765       0.00000000
Si       1.19160535       2.86681194       2.02036937       0.00000000
Si       1.95058578      -3.19371056      -0.05304674       0.00000000
