10
Lattice="16.28999089631971 0.0 0.0 0.0 16.28999089631971 0.0 0.0 0.0 34.53561885213415" Properties=species:S:1:pos:R:3:initial_magmoms:R:1 pbc="T T T"
Si       1.33806060       1.35317772       1.37196276       0.00000000
Si       1.35052245      -1.35879777      -1.35832118       0.00000000
Si      -1.36133901       1.35767376      -1.35780315       0.00000000
Si      -1.35627282      -1.36583505       1.36246546       0.00000000
Si       0.05188365      -2.74877460       2.64125107       0.00000000
Si       2.71055826       0.00039096      -2.71501919       0.00000000
Si       2.71094922      -2.71515204       0.00117421       0.00000000
Si       2.71373481       2.71539639      -0.00245203       0.00000000
Si      -0.00478926      -2.71469592      -2.71567537       0.00000000
Si      -0.00441459       2.71528236      -2.71546816       0.00000000
