10
Lattice="16.28999089631971 0.0 0.0 0.0 16.28999089631971 0.0 0.0 0.0 34.53561885213415" Properties=species:S:1:pos:R:3:initial_magmoms:R:1 pbc="T T T"
Si       0.28463517      -2.30948217       0.23857219       0.00000000
Si      -2.16787320       0.07149681      -0.93871318       0.00000000
Si       0.33200649       0.99753444       2.13264473       0.00000000
Si       1.64685384       0.83825082      -1.52623346       0.00000000
Si      -1.67469345       1.93189626      -2.28056087       0.00000000
Si       0.51163632       2.90020644      -1.80017014       0.00000000
Si       1.94466762      -2.57642640      -1.41537406       0.00000000
Si       1.87250292      -0.50655384       3.16204849       0.00000000
Si       0.95928552      -2.58253515       2.48532266       0.00000000
Si       1.97213256      -0.88624116      -3.11746298       0.00000000
