10
Lattice="16.28999089631971 0.0 0.0 0.0 16.28999089631971 0.0 0.0 0.0 34.53561885213415" Properties=species:S:1:pos:R:3:initial_magmoms:R:1 pbc="T T T"
Si      -1.79944227      -1.20629079      -1.14362490       0.00000000
Si       1.91650221       0.72710415      -1.35760772       0.00000000
Si      -1.43967762       1.24635313       1.62056410       0.00000000
Si       1.24359489      -1.44928872       1.62153110       0.00000000
Si      -0.08736327      -2.30553999      -2.25218435       0.00000000
Si       2.62702314       2.57363822       0.11120821       0.00000000
Si      -1.08761814       3.41434232      -0.95237893       0.00000000
Si      -2.89365786       2.47683978       0.25311860       0.00000000
Si       2.57126247      -2.83817412       0.27131543       0.00000000
Si       3.66956685      -1.06605018      -0.89784025       0.00000000
