10
Lattice="16.28999089631971 0.0 0.0 0.0 16.28999089631971 0.0 0.0 0.0 34.53561885213415" Properties=species:S:1:pos:R:3:initial_magmoms:R:1 pbc="T T T"
Si       1.45862126      -1.15751846       1.33804876       0.00000000
Si       1.73059910       0.97579869      -1.30829251       0.00000000
Si      -1.26460169       1.56745149       1.28902197       0.00000000
Si      -0.40466641      -2.10107998      -2.27389691       0.00000000
Si       0.32305513       0.05659146      -3.23291704       0.00000000
Si      -2.33483823      -2.32197238      -0.27698618       0.00000000
Si       0.09887867      -2.50645663       2.66961864       0.00000000
Si       2.80223675      -2.38178926      -0.11480682       0.00000000
Si      -2.62180287       0.21251282       2.66668311       0.00000000
Si       2.81479634       0.21398055       2.66758104       0.00000000
