10
Lattice="16.28999089631971 0.0 0.0 0.0 16.28999089631971 0.0 0.0 0.0 34.53561885213415" Properties=species:S:1:pos:R:3:initial_magmoms:R:1 pbc="T T T"
Si      -0.46035540       0.54882380       2.19325477       0.00000000
Si       1.77484437      -1.51500258      -0.28036031       0.00000000
Si      -2.05996824      -0.84944205      -0.75087384       0.00000000
Si       0.72879831       2.19624128      -0.49990336       0.00000000
Si       3.39644871      -0.09793548      -1.15186714       0.00000000
Si      -2.80973178       0.71682583       2.14877287       0.00000000
Si       3.04781013       1.95664796      -0.05363385       0.00000000
Si      -1.73522709      -0.63788382      -3.14125804       0.00000000
Si      -3.56490360       0.82450762      -0.11717942       0.00000000
Si       1.69647318      -2.81409750       1.68160929       0.00000000
