10
Lattice="16.28999089631971 0.0 0.0 0.0 16.28999089631971 0.0 0.0 0.0 34.53561885213415" Properties=species:S:1:pos:R:3:initial_magmoms:R:1 pbc="T T T"
Si      -1.33219620      -1.34560290      -1.38636758       0.00000000
Si      -1.35172791       1.35585091       1.35935725       0.00000000
Si       1.36430298      -1.35829869       1.35835572       0.00000000
Si       1.35720117       1.35493867      -1.37766114       0.00000000
Si       2.62180287      -0.21251282      -2.66668311       0.00000000
Si      -2.70479160       2.71209115       0.00231389       0.00000000
Si      -2.70984150      -0.00098392       2.71584805       0.00000000
Si       0.00472410       2.71360612       2.71636608       0.00000000
Si      -2.71246419      -2.71883914      -0.00397160       0.00000000
Si       0.00557118      -2.71727530       2.71512280       0.00000000
