10
Lattice="16.28999089631971 0.0 0.0 0.0 16.28999089631971 0.0 0.0 0.0 34.53561885213415" Properties=species:S:1:pos:R:3:initial_magmoms:R:1 pbc="T T T"
Si       1.35684297       1.35775845       1.35714697       0.00000000
Si       1.35713619      -1.35735680      -1.35763047       0.00000000
Si      -1.35738054      -1.35773147       1.35756140       0.00000000
Si      -1.35827649       1.35893458      -1.35690522       0.00000000
Si       0.00257382      -2.71446041       2.71305066       0.00000000
Si       2.71385652      -2.71413461       0.00096700       0.00000000
Si      -0.00161271      -2.71449299      -2.71460477       0.00000000
Si      -0.00016290       2.71576941      -2.71339602       0.00000000
Si      -2.71557558      -2.71457444       0.00003454       0.00000000
Si       2.71512525       2.71510152       0.00006907       0.00000000
