10
Lattice="16.28999089631971 0.0 0.0 0.0 16.28999089631971 0.0 0.0 0.0 34.53561885213415" Properties=species:S:1:pos:R:3:initial_magmoms:R:1 pbc="T T T"
Si       0.34863858      -2.05458344      -1.09823329       0.00000000
Si       1.08942633       1.45870434      -1.50817132       0.00000000
Si      -2.31901182       0.23959332      -0.44626952       0.00000000
Si       1.03236246      -0.06331923       2.15609443       0.00000000
Si       3.25585365       0.74774358      -0.93180605       0.00000000
Si      -0.75746871       1.30953681       3.18249359       0.00000000
Si      -1.03210182      -1.41938680      -3.06614303       0.00000000
Si       3.02556843       1.13005359       1.45046227       0.00000000
Si      -3.04781013      -1.95664796       0.05363385       0.00000000
Si      -2.41131096       0.64874925      -2.73542976       0.00000000
