10
Lattice="16.28999089631971 0.0 0.0 0.0 16.28999089631971 0.0 0.0 0.0 34.53561885213415" Properties=species:S:1:pos:R:3:initial_magmoms:R:1 pbc="T T T"
Si       1.23224615      -1.75913171      -0.96813754       0.00000000
Si       1.47398666       1.83474270      -0.14428990       0.00000000
Si      -2.10986451       0.48102741      -1.03192487       0.00000000
Si      -0.17806599      -0.59869334       2.34980482       0.00000000
Si      -3.37044987       0.78771924       0.96302627       0.00000000
Si      -2.56854204      -0.94441601       2.33184629       0.00000000
Si       1.24308992       2.76675876       2.02599868       0.00000000
Si       3.42457244      -1.35896786      -0.19733664       0.00000000
Si       0.40378023      -1.77938018      -3.20798089       0.00000000
Si       0.66984480      -3.64168556       0.33824204       0.00000000
