10
Lattice="16.28999089631971 0.0 0.0 0.0 16.28999089631971 0.0 0.0 0.0 34.53561885213415" Properties=species:S:1:pos:R:3:initial_magmoms:R:1 pbc="T T T"
Si      -1.35707807       1.35707103       1.35728512       0.00000000
Si       1.35734796       1.35713619      -1.35700883       0.00000000
Si       1.35738054      -1.35773892       1.35759594       0.00000000
Si      -1.35888641      -1.35795069      -1.35725058       0.00000000
Si      -2.71445876       0.00042354      -2.71401766       0.00000000
Si      -2.71499633      -0.00029322       2.71419034       0.00000000
Si      -2.71512665       2.71448415       0.00013814       0.00000000
Si       2.71518462       2.71482624      -0.00048350       0.00000000
Si      -2.71538729      -2.71502172       0.00075978       0.00000000
Si      -0.00172674       2.71500543       2.71550269       0.00000000
