10
Lattice="16.28999089631971 0.0 0.0 0.0 16.28999089631971 0.0 0.0 0.0 34.53561885213415" Properties=species:S:1:pos:R:3:initial_magmoms:R:1 pbc="T T T"
Si      -1.35557235       1.35837423      -1.35676708       0.00000000
Si      -1.35650088      -1.35707103       1.35801036       0.00000000
Si       1.35888641       1.35795069       1.35725058       0.00000000
Si       1.36338245      -1.35627282      -1.36077321       0.00000000
Si      -2.70883152      -0.00959481      -2.68127442       0.00000000
Si      -2.71295289      -2.71482624       0.00100153       0.00000000
Si      -2.71357191       0.00063531       2.71443209       0.00000000
Si      -2.71445157       2.71362078       0.00027629       0.00000000
Si       0.00180833       2.71502172       2.71453569       0.00000000
Si       0.00233526      -2.71549413       2.71446662       0.00000000
