10
Lattice="16.28999089631971 0.0 0.0 0.0 16.28999089631971 0.0 0.0 0.0 34.53561885213415" Properties=species:S:1:pos:R:3:initial_magmoms:R:1 pbc="T T T"
Si       1.35754344      -1.35303111       1.35811397       0.00000000
Si      -1.35746199      -1.35702216      -1.35700883       0.00000000
Si       1.35791825       1.35736425      -1.35690522       0.00000000
Si      -1.35689184       1.35672894       1.35963354       0.00000000
Si      -2.70850572      -0.01306458       2.68493865       0.00000000
Si      -2.71510317      -2.71236645       0.00117421       0.00000000
Si      -0.00039096      -2.71472850      -2.71343055       0.00000000
Si      -2.71461447      -0.00021177      -2.71387952       0.00000000
Si       2.71326959       2.71529865       0.00131235       0.00000000
Si      -0.00013032       2.71477737      -2.71405220       0.00000000
