10
Lattice="16.28999089631971 0.0 0.0 0.0 16.28999089631971 0.0 0.0 0.0 34.53561885213415" Properties=species:S:1:pos:R:3:initial_magmoms:R:1 pbc="T T T"
Si      -1.35594027      -1.35729909      -1.35835572       0.00000000
Si       1.35799141       1.35840681      -1.35797583       0.00000000
Si      -1.35684201       1.36282140       1.35673254       0.00000000
Si       1.35935977      -1.36203948       1.35835572       0.00000000
Si      -2.71422255      -2.71464216      -0.00127782       0.00000000
Si       0.00103279      -2.71446460      -2.71512280       0.00000000
Si      -2.71477641       0.00112401      -2.71481198       0.00000000
Si      -2.71438545       2.71585251      -0.00138143       0.00000000
Si       2.71713127      -2.71324611      -0.00155410       0.00000000
Si       2.71584436       2.71492398       0.00103607       0.00000000
