10
Lattice="16.28999089631971 0.0 0.0 0.0 16.28999089631971 0.0 0.0 0.0 34.53561885213415" Properties=species:S:1:pos:R:3:initial_magmoms:R:1 pbc="T T T"
Si      -0.69620202       1.15194735       1.86972491       0.00000000
Si       2.31485528       0.57554199       0.10709501       0.00000000
Si      -0.71610840       1.81076382      -1.62462549       0.00000000
Si      -0.80340651      -2.17727253       1.20149485       0.00000000
Si      -1.46064285      -0.07284888      -2.86034516       0.00000000
Si       1.85342963       2.84947938      -0.46847593       0.00000000
Si       2.99688337      -1.39470093      -1.21910803       0.00000000
Si      -3.19788990      -0.85791285      -1.29035505       0.00000000
Si      -2.97588978       1.05816582       1.66337448       0.00000000
Si       0.29673864       3.36355920       1.52474842       0.00000000
