10
Lattice="16.28999089631971 0.0 0.0 0.0 16.28999089631971 0.0 0.0 0.0 34.53561885213415" Properties=species:S:1:pos:R:3:initial_magmoms:R:1 pbc="T T T"
Si      -0.89000415       1.05616215      -1.89172412       0.00000000
Si      -0.88777242       0.11603367       2.18527704       0.00000000
Si       1.83744262       1.48445883       0.19174186       0.00000000
Si       0.07894134      -2.32733601      -0.45483435       0.00000000
Si       1.20083364      -0.55944747       3.29418185       0.00000000
Si      -0.99720864      -2.27305773      -2.55995418       0.00000000
Si       3.23803565       0.62638308      -1.51400784       0.00000000
Si       2.27979594       1.40612022       2.46574096       0.00000000
Si      -3.25518183       0.24957909       1.86447550       0.00000000
Si      -0.19380213      -0.09578520      -3.76144903       0.00000000
