10
Lattice="16.28999089631971 0.0 0.0 0.0 16.28999089631971 0.0 0.0 0.0 34.53561885213415" Properties=species:S:1:pos:R:3:initial_magmoms:R:1 pbc="T T T"
Si      -1.34552046      -1.33595919      -1.38926512       0.00000000
Si       1.36967135       1.37671677      -1.38570795       0.00000000
Si      -1.60788720       1.18330560       1.39275322       0.00000000
Si       1.34852692      -1.42076493       1.47194343       0.00000000
Si       2.28609787       0.38543769       2.82618941       0.00000000
Si      -2.71083423      -2.69151525      -0.00987719       0.00000000
Si       2.72954425      -2.69606016      -0.00935916       0.00000000
Si       0.01132155      -2.69878059      -2.74599766       0.00000000
Si      -2.69952897       2.74998006      -0.00828855       0.00000000
Si      -2.70306390       0.01707192      -2.74737909       0.00000000
