10
Lattice="16.28999089631971 0.0 0.0 0.0 16.28999089631971 0.0 0.0 0.0 34.53561885213415" Properties=species:S:1:pos:R:3:initial_magmoms:R:1 pbc="T T T"
Si      -1.35179307      -1.34270325       1.37518148       0.00000000
Si       1.35959598       1.37492487       1.36799807       0.00000000
Si      -1.40069565       1.34791605      -1.35510246       0.00000000
Si       1.26408771      -1.45448523      -1.44225660       0.00000000
Si       2.48106474       0.19973169      -2.78137048       0.00000000
Si      -2.70005121      -2.70736542       0.01248809       0.00000000
Si       2.72073951      -2.70417258      -0.00544627       0.00000000
Si       0.00293220      -2.70226665       2.73156867       0.00000000
Si      -2.71143792       0.01345554       2.73132692       0.00000000
Si       2.71965519       0.01365102       2.73184496       0.00000000
