10
Lattice="16.28999089631971 0.0 0.0 0.0 16.28999089631971 0.0 0.0 0.0 34.53561885213415" Properties=species:S:1:pos:R:3:initial_magmoms:R:1 pbc="T T T"
Si       1.35995436      -1.35672894       1.35548926       0.00000000
Si      -1.35819504      -1.35684297      -1.35752686       0.00000000
Si       1.35738054       1.35773147      -1.35756140       0.00000000
Si      -1.35931905       1.36006833       1.36215464       0.00000000
Si       2.71593396      -0.01233153       2.70424407       0.00000000
Si       2.71192662      -2.71595025       0.00000000       0.00000000
Si      -0.00070047      -2.71384884      -2.71505373       0.00000000
Si      -2.71511946      -2.71445157       0.00013814       0.00000000
Si       2.71451673       0.00037467      -2.71519187       0.00000000
Si       2.71422351       2.71548991      -0.00041443       0.00000000
