10
Lattice="16.28999089631971 0.0 0.0 0.0 16.28999089631971 0.0 0.0 0.0 34.53561885213415" Properties=species:S:1:pos:R:3:initial_magmoms:R:1 pbc="T T T"
Si      -1.43536077       1.22249934       1.36063507       0.00000000
Si      -1.35597960      -1.34439741      -1.34875481       0.00000000
Si       1.17338499      -1.36704051       1.50489043       0.00000000
Si       1.35661491       1.36899531      -1.34260747       0.00000000
Si       0.36360909       2.28945917       2.48228353       0.00000000
Si       2.18683380       0.43215741       2.75290479       0.00000000
Si      -0.69199920      -2.18711169       2.88420928       0.00000000
Si      -2.46396024      -0.53444232       2.85658077       0.00000000
Si      -0.00400734      -2.70361872      -2.70424407       0.00000000
Si       2.70058131      -2.70844056       0.05353024       0.00000000
