10
Lattice="16.28999089631971 0.0 0.0 0.0 16.28999089631971 0.0 0.0 0.0 34.53561885213415" Properties=species:S:1:pos:R:3:initial_magmoms:R:1 pbc="T T T"
Si       0.26341535       1.83246210       1.53921886       0.00000000
Si       1.26282428      -1.82698866       0.93957657       0.00000000
Si       1.31501581       1.15676919      -1.91123675       0.00000000
Si      -2.20545423      -0.65008503      -1.23274960       0.00000000
Si       2.54883833      -2.33448732      -1.13615342       0.00000000
Si      -1.78030152       2.95886673       1.24286855       0.00000000
Si       3.33989702      -0.13165578      -1.78103740       0.00000000
Si      -0.13804146      -3.78385749       1.22218170       0.00000000
Si       1.68206860       3.55081994       0.65648795       0.00000000
Si      -3.97117620       0.05577696       0.38876768       0.00000000
