10
Lattice="16.28999089631971 0.0 0.0 0.0 16.28999089631971 0.0 0.0 0.0 34.53561885213415" Properties=species:S:1:pos:R:3:initial_magmoms:R:1 pbc="T T T"
Si       0.06789672      -1.16975232       2.06250285       0.00000000
Si       2.28456566       0.58953510      -0.39336092       0.00000000
Si      -1.25551917       2.03061759      -0.15250938       0.00000000
Si      -0.40760838      -1.01237463      -2.16407216       0.00000000
Si       0.15479297       0.87017922      -3.47045174       0.00000000
Si       0.95843585      -3.26018286       1.28707416       0.00000000
Si      -1.07745318       2.62931093      -2.50231420       0.00000000
Si       2.34711926       1.27034307      -2.69965083       0.00000000
Si       0.98483054       0.50477823       3.64015987       0.00000000
Si       3.62145338      -1.32255252      -0.01194933       0.00000000
