10
Lattice="16.28999089631971 0.0 0.0 0.0 16.28999089631971 0.0 0.0 0.0 34.53561885213415" Properties=species:S:1:pos:R:3:initial_magmoms:R:1 pbc="T T T"
Si       0.11235865       0.42855732      -2.35305117       0.00000000
Si      -1.42250210      -1.93479588       0.14991921       0.00000000
Si      -0.76515922       2.28622005       0.04275512       0.00000000
Si       2.01676390      -1.07496081       0.77556683       0.00000000
Si      -3.45852405      -0.83320092      -0.06496154       0.00000000
Si       1.28228038       3.43137447       0.23242484       0.00000000
Si      -1.19160535      -2.86681194      -2.02036937       0.00000000
Si       2.32001854       1.08602172      -2.87640423       0.00000000
Si      -1.47717135      -0.95190615      -3.43494911       0.00000000
Si       2.93633440       2.46466071      -1.08459172       0.00000000
