10
Lattice="16.28999089631971 0.0 0.0 0.0 16.28999089631971 0.0 0.0 0.0 34.53561885213415" Properties=species:S:1:pos:R:3:initial_magmoms:R:1 pbc="T T T"
Si       1.35709880       1.35834165       1.35673254       0.00000000
Si      -1.35851166      -1.35710361       1.35683615       0.00000000
Si       1.35713138      -1.35799956      -1.36084229       0.00000000
Si      -1.36005921       1.36127385      -1.36384689       0.00000000
Si       2.71223621       2.71601541       0.00006907       0.00000000
Si       2.71396295      -2.71445157      -0.00031082       0.00000000
Si      -0.00046309      -2.71451673       2.71398312       0.00000000
Si       2.71430504       0.00032580       2.71484652       0.00000000
Si      -2.71566414       0.00039096       2.71432848       0.00000000
Si      -0.00120489       2.71572219       2.71481198       0.00000000
