10
Lattice="16.28999089631971 0.0 0.0 0.0 16.28999089631971 0.0 0.0 0.0 34.53561885213415" Properties=species:S:1:pos:R:3:initial_magmoms:R:1 pbc="T T T"
Si       1.35746199       1.35690813       1.35573101       0.00000000
Si       1.35749457      -1.35708732      -1.35863200       0.00000000
Si      -1.35720624       1.35801585      -1.35811397       0.00000000
Si      -1.35941679      -1.35690813       1.35735419       0.00000000
Si      -2.71361177      -0.00169416       2.71450116       0.00000000
Si      -2.71430504      -0.00032580      -2.71484652       0.00000000
Si       2.71495656      -2.71432125      -0.00051803       0.00000000
Si      -2.71476812      -2.71484253      -0.00086339       0.00000000
Si      -0.00034209      -2.71477737      -2.71515734       0.00000000
Si       0.00004887      -2.71256193       2.71771297       0.00000000
