10
Lattice="16.28999089631971 0.0 0.0 0.0 16.28999089631971 0.0 0.0 0.0 34.53561885213415" Properties=species:S:1:pos:R:3:initial_magmoms:R:1 pbc="T T T"
Si      -1.35419498       1.35521397       1.35714697       0.00000000
Si      -1.35535133      -1.35793440      -1.35821758       0.00000000
Si       1.35941679       1.35690813      -1.35735419       0.00000000
Si       1.35946566      -1.35565380       1.36035879       0.00000000
Si      -2.71540358       2.71275741      -0.00079432       0.00000000
Si      -2.71326959      -2.71529865      -0.00131235       0.00000000
Si      -2.71339991      -0.00052128      -2.71536455       0.00000000
Si       0.00221055       2.71492398      -2.71546816       0.00000000
Si       0.00172674      -2.71500543      -2.71550269       0.00000000
Si       2.71687878       2.71381626      -0.00162317       0.00000000
