10
Lattice="16.28999089631971 0.0 0.0 0.0 16.28999089631971 0.0 0.0 0.0 34.53561885213415" Properties=species:S:1:pos:R:3:initial_magmoms:R:1 pbc="T T T"
Si      -1.95039030      -1.22504058       0.34912077       0.00000000
Si       0.41583483       1.38284181      -1.91911088       0.00000000
Si       0.05727564       1.17727830       2.15512743       0.00000000
Si       1.30572495      -2.31415740      -0.57857555       0.00000000
Si      -2.58826013      -1.51628949      -2.01201174       0.00000000
Si       0.84833433       3.38010984       1.51024346       0.00000000
Si       2.97652509      -1.31535234      -1.99899181       0.00000000
Si       1.74099375       0.04782744      -3.42683323       0.00000000
Si       1.59995493      -0.08566911       3.52377477       0.00000000
Si      -1.48896464      -3.49897797       0.92469171       0.00000000
