10
Lattice="16.28999089631971 0.0 0.0 0.0 16.28999089631971 0.0 0.0 0.0 34.53561885213415" Properties=species:S:1:pos:R:3:initial_magmoms:R:1 pbc="T T T"
Si       1.65405402      -0.96671376      -1.31701656       0.00000000
Si      -2.04743960      -1.14515442      -0.18966972       0.00000000
Si      -0.53532198       2.29485375      -0.18897901       0.00000000
Si       0.85647933       0.34362126       2.17909516       0.00000000
Si      -1.91198336       2.26756800       1.68088404       0.00000000
Si      -2.97413765       0.05657517       1.67048882       0.00000000
Si      -1.28228038      -3.43137447      -0.23242484       0.00000000
Si       2.71691136      -1.15712757       2.19998922       0.00000000
Si      -1.32848697       0.36823545       3.43532900       0.00000000
Si       2.64350862       0.76701465      -2.47516919       0.00000000
