10
Lattice="16.28999089631971 0.0 0.0 0.0 16.28999089631971 0.0 0.0 0.0 34.53561885213415" Properties=species:S:1:pos:R:3:initial_magmoms:R:1 pbc="T T T"
Si       2.02488121      -1.28842497       0.13019936       0.00000000
Si      -0.31818280       1.21277421      -2.07452125       0.00000000
Si      -1.31501581      -1.15676919       1.91123675       0.00000000
Si      -0.33999022       2.55571108       0.35699489       0.00000000
Si       2.16720694      -0.54296199      -2.14148585       0.00000000
Si       0.36705280       2.39405075       2.56772470       0.00000000
Si      -1.33163161      -0.58642371      -3.32253560       0.00000000
Si      -1.05160046       0.67569291       3.45045561       0.00000000
Si       1.23382252      -3.49125651       0.77508333       0.00000000
Si      -3.19701580      -1.40649489      -1.94321675       0.00000000
