10
Lattice="16.28999089631971 0.0 0.0 0.0 16.28999089631971 0.0 0.0 0.0 34.53561885213415" Properties=species:S:1:pos:R:3:initial_magmoms:R:1 pbc="T T T"
Si      -0.76151352       2.09836377      -0.81828741       0.00000000
Si       1.25528296       0.25365159       2.03556505       0.00000000
Si      -1.75206999      -1.47895281       0.74893985       0.00000000
Si       1.35501034      -0.71260605      -1.88730355       0.00000000
Si       1.46359949       2.67055002      -1.30264974       0.00000000
Si       2.88081319      -1.47359340       1.69521633       0.00000000
Si      -0.27539874      -0.20957085       3.84979119       0.00000000
Si       2.97203719       1.13090067      -2.26795536       0.00000000
Si      -0.23445383      -1.14976449      -3.72587732       0.00000000
Si      -3.84233763      -1.14202674      -0.31517223       0.00000000
