10
Lattice="16.28999089631971 0.0 0.0 0.0 16.28999089631971 0.0 0.0 0.0 34.53561885213415" Properties=species:S:1:pos:R:3:initial_magmoms:R:1 pbc="T T T"
Si       1.12653495       1.73513817       0.92272318       0.00000000
Si      -2.22511300      -0.57218625       0.48436233       0.00000000
Si       1.50843771      -1.53964935      -0.96530562       0.00000000
Si      -2.69746224      -0.16086375      -1.82358530       0.00000000
Si      -1.46359949      -2.67055002       1.30264974       0.00000000
Si       2.24916030       2.26827729      -1.08662932       0.00000000
Si      -1.27880898       1.55749409      -2.70631621       0.00000000
Si      -0.10858914      -3.38315607      -0.58465382       0.00000000
Si       1.09980306       1.47275790      -3.04452372       0.00000000
Si       2.28263625       0.89867043       2.78982339       0.00000000
