10
Lattice="16.28999089631971 0.0 0.0 0.0 16.28999089631971 0.0 0.0 0.0 34.53561885213415" Properties=species:S:1:pos:R:3:initial_magmoms:R:1 pbc="T T T"
Si       1.62553023      -1.72724499      -0.34034871       0.00000000
Si       1.15527051       1.95320358       0.78478784       0.00000000
Si      -1.25528296      -0.25365159      -2.03556505       0.00000000
Si      -1.53068170      -0.46322244       1.81422614       0.00000000
Si      -3.00735296      -1.73260440      -1.28662520       0.00000000
Si      -2.85391745      -2.24767791       1.11363619       0.00000000
Si       2.51328636       1.28674710       2.64743295       0.00000000
Si       0.54578016      -3.84663915      -0.57014885       0.00000000
Si      -0.38214711      -0.96032808       3.79784959       0.00000000
Si      -0.37012509       3.54291210       1.68098765       0.00000000
