10
Lattice="16.28999089631971 0.0 0.0 0.0 16.28999089631971 0.0 0.0 0.0 34.45770212530097" Properties=species:S:1:pos:R:3:initial_magmoms:R:1 pbc="T T T"
Si      -1.91775654       1.50793339      -0.03704205       0.00000000
Si      -0.26062371      -2.21583096       1.17690347       0.00000000
Si       0.09453087       0.22784823      -2.58570741       0.00000000
Si       1.89167625       1.10330771       1.55345745       0.00000000
Si       1.19048949      -0.60442416       3.05075368       0.00000000
Si       0.43067502       3.05550620       1.76275365       0.00000000
Si       0.43269498      -1.99036107      -3.19509222       0.00000000
Si      -3.45252608       1.02470194      -1.73477398       0.00000000
Si      -3.28509746       1.27781108       1.91558127       0.00000000
Si      -1.44492789       2.17118074       3.10952477       0.00000000
