10
Lattice="16.28999089631971 0.0 0.0 0.0 16.28999089631971 0.0 0.0 0.0 34.45770212530097" Properties=species:S:1:pos:R:3:initial_magmoms:R:1 pbc="T T T"
Si       1.36093176      -1.31000015       1.44538426       0.00000000
Si      -1.31916420       1.42817036       1.43373065       0.00000000
Si       1.81066608       0.79160603      -1.45541287       0.00000000
Si      -1.98278622      -0.91684518      -1.49927755       0.00000000
Si      -2.68397298      -2.62457705      -0.00198132       0.00000000
Si       2.64323169      -2.75199743       0.08343937       0.00000000
Si      -3.44378745       1.03535330      -1.28998135       0.00000000
Si       2.72217303       2.71770305      -0.13254507       0.00000000
Si       0.55537497       0.86764775      -3.72207624       0.00000000
Si       0.02648754      -2.65512080       2.80767716       0.00000000
