10
Lattice="16.28999089631971 0.0 0.0 0.0 16.28999089631971 0.0 0.0 0.0 34.45770212530097" Properties=species:S:1:pos:R:3:initial_magmoms:R:1 pbc="T T T"
Si      -1.71809001      -0.76913235      -1.39457290       0.00000000
Si       0.53519166       0.71672742       2.22782952       0.00000000
Si       1.78290792      -1.63268154       0.02580883       0.00000000
Si       0.86765427       1.81843641      -1.36934985       0.00000000
Si      -0.35280882      -2.03214003      -2.74941605       0.00000000
Si      -1.44648684       2.31607962       2.15195362       0.00000000
Si       2.37056967       0.69854778      -2.74255896       0.00000000
Si       2.60206686       2.66079231       0.01429995       0.00000000
Si       0.94744269      -3.42294344      -1.29485225       0.00000000
Si       1.37976300      -2.94168567       2.00061530       0.00000000
