10
Lattice="16.28999089631971 0.0 0.0 0.0 16.28999089631971 0.0 0.0 0.0 34.45770212530097" Properties=species:S:1:pos:R:3:initial_magmoms:R:1 pbc="T T T"
Si      -0.53519166      -0.71672742      -2.22782952       0.00000000
Si      -1.98167850       1.59935220      -0.07587590       0.00000000
Si       1.64014236       1.10397330       1.70641528       0.00000000
Si       1.25970570      -2.20553568       1.48685068       0.00000000
Si      -0.62248977      -1.23499377       2.62750463       0.00000000
Si      -2.51160849      -0.09940158       1.71223863       0.00000000
Si       3.12502473      -0.54933138       0.71155195       0.00000000
Si       1.24771626      -2.34940896      -2.20202068       0.00000000
Si       1.22960178       3.28546494       0.29650869       0.00000000
Si       2.06687520       1.94406489      -2.21352956       0.00000000
