10
Lattice="16.28999089631971 0.0 0.0 0.0 16.28999089631971 0.0 0.0 0.0 34.45770212530097" Properties=species:S:1:pos:R:3:initial_magmoms:R:1 pbc="T T T"
Si      -1.33490034       0.01183794      -1.92301651       0.00000000
Si      -0.28487952       1.21960949       1.98752137       0.00000000
Si       2.16402876       0.50407124      -0.77867559       0.00000000
Si      -0.28359261      -2.23490396       0.72881526       0.00000000
Si       1.12256019      -0.23075762       3.23289234       0.00000000
Si      -1.00212822      -2.31145067      -2.45662879       0.00000000
Si      -2.20273380      -2.89738568      -0.49688034       0.00000000
Si      -0.36621549      -2.04326840       3.03386454       0.00000000
Si       2.19825405       2.89425407      -0.80975645       0.00000000
Si      -0.56961243       1.67436113      -3.38464414       0.00000000
