10
Lattice="16.28999089631971 0.0 0.0 0.0 16.28999089631971 0.0 0.0 0.0 34.45770212530097" Properties=species:S:1:pos:R:3:initial_magmoms:R:1 pbc="T T T"
Si      -1.08545157      -1.26170937       1.61634279       0.00000000
Si      -1.09258659       2.02136094       0.53481829       0.00000000
Si       2.25129429       0.80332506      -0.07591036       0.00000000
Si      -0.59921136      -1.06269444      -2.13152019       0.00000000
Si       2.33451990       0.61421445      -2.39749934       0.00000000
Si      -0.12183291       3.28701249      -1.11522415       0.00000000
Si      -3.26169783       1.42775334       0.21298318       0.00000000
Si       1.62002421      -1.56279744      -2.77033188       0.00000000
Si      -3.34065546      -0.61626699       1.40618515       0.00000000
Si       0.60033537       2.06091306      -2.99451382       0.00000000
