10
Lattice="16.28999089631971 0.0 0.0 0.0 16.28999089631971 0.0 0.0 0.0 34.45770212530097" Properties=species:S:1:pos:R:3:initial_magmoms:R:1 pbc="T T T"
Si       0.99364113       1.76981076      -1.16262488       0.00000000
Si      -1.29831300       1.28736612       1.48196113       0.00000000
Si      -2.01528477      -0.78250644      -1.16450834       0.00000000
Si       1.41255477      -1.44880002       1.44801338       0.00000000
Si       2.43572967       0.25423803      -2.24609353       0.00000000
Si      -2.51454069       2.75905359       0.00791149       0.00000000
Si      -2.61293229      -2.74893750       0.08982783       0.00000000
Si      -0.70460766       3.51026694      -1.47086371       0.00000000
Si       0.06403599       2.63033001       2.84935722       0.00000000
Si      -2.65072509      -0.08285094       2.84418856       0.00000000
