10
Lattice="16.28999089631971 0.0 0.0 0.0 16.28999089631971 0.0 0.0 0.0 34.45770212530097" Properties=species:S:1:pos:R:3:initial_magmoms:R:1 pbc="T T T"
Si      -1.35452979       1.35609363       1.35387833       0.00000000
Si      -1.35567009      -1.35817875      -1.35746193       0.00000000
Si       1.35597960      -1.35558864       1.36128674       0.00000000
Si       1.35904212       1.35671265      -1.35787543       0.00000000
Si      -2.68297766      -0.00794952       2.72116072       0.00000000
Si      -0.00658116       2.69814528       2.72601925       0.00000000
Si      -2.71185820       2.71308321      -0.00034458       0.00000000
Si       2.71456560       2.71262709       0.00000000       0.00000000
Si      -2.71323634      -0.00112401      -2.71454483       0.00000000
Si       0.00216657       2.71389771      -2.71447592       0.00000000
