10
Lattice="16.28999089631971 0.0 0.0 0.0 16.28999089631971 0.0 0.0 0.0 34.45770212530097" Properties=species:S:1:pos:R:3:initial_magmoms:R:1 pbc="T T T"
Si      -0.83046420       2.01210822       1.23654979       0.00000000
Si      -0.52992999      -1.69875378       1.78811454       0.00000000
Si      -1.40719536       0.91015488      -1.88859325       0.00000000
Si       1.98167850      -1.59935220       0.07587590       0.00000000
Si       1.44648684      -2.31607962      -2.15195362       0.00000000
Si       3.21128028       1.68611274       0.37238459       0.00000000
Si       0.77748912       3.59370432       0.55600979       0.00000000
Si      -1.62794115      -0.41526468       3.46651569       0.00000000
Si      -2.20439538      -3.19073859       0.92033128       0.00000000
Si      -0.60970212       1.67353686       3.57957147       0.00000000
