10
Lattice="16.28999089631971 0.0 0.0 0.0 16.28999089631971 0.0 0.0 0.0 34.45770212530097" Properties=species:S:1:pos:R:3:initial_magmoms:R:1 pbc="T T T"
Si      -0.99364113      -1.76981076       1.16262488       0.00000000
Si       1.44208854      -1.51557273      -1.08346865       0.00000000
Si       1.83381417       0.96910839       1.29397427       0.00000000
Si      -1.69824879       1.74045618      -0.30823883       0.00000000
Si       0.42010281       2.22418773       2.64983737       0.00000000
Si       0.10303425       0.79672761      -3.40964050       0.00000000
Si      -2.29195413      -0.48244464       2.64458601       0.00000000
Si       2.37809565       0.08724924      -2.72837689       0.00000000
Si      -0.85647933       3.47348412       1.05580595       0.00000000
Si      -3.50818182       0.98924283       1.17053638       0.00000000
