10
Lattice="16.28999089631971 0.0 0.0 0.0 16.28999089631971 0.0 0.0 0.0 34.45770212530097" Properties=species:S:1:pos:R:3:initial_magmoms:R:1 pbc="T T T"
Si      -0.24759171      -1.72147248       1.60914113       0.00000000
Si       2.31163245      -0.33744898      -0.44102438       0.00000000
Si      -1.22018616      -0.52403953      -1.99482641       0.00000000
Si      -0.38100681       2.30615575       0.68460601       0.00000000
Si       1.44379899      -3.24667260       0.98511180       0.00000000
Si      -0.22828806      -0.57489039       3.75744223       0.00000000
Si      -0.48666375       0.96868159      -3.68570125       0.00000000
Si       3.07692036       1.32507421      -1.90265200       0.00000000
Si       2.64440457      -2.66073759      -0.97463665       0.00000000
Si      -2.70807241       2.63192317       0.87784491       0.00000000
