10
Lattice="16.28999089631971 0.0 0.0 0.0 16.28999089631971 0.0 0.0 0.0 34.45770212530097" Properties=species:S:1:pos:R:3:initial_magmoms:R:1 pbc="T T T"
Si      -1.34794863      -1.34205165      -1.37214092       0.00000000
Si       1.36775727       1.37450133      -1.36838503       0.00000000
Si      -1.43638704       1.32421410       1.36049421       0.00000000
Si       1.37036367      -1.36202319       1.49512053       0.00000000
Si       0.42178068       2.15446653       2.50545538       0.00000000
Si       2.09538270       0.40311234       2.95364696       0.00000000
Si      -2.67639650      -2.70609480      -0.00485854       0.00000000
Si       0.00658116      -2.69814528      -2.72601925       0.00000000
Si       2.72748357      -2.70280422       0.01598838       0.00000000
Si      -2.70527704       0.01493793      -2.72636383       0.00000000
