10
Lattice="16.28999089631971 0.0 0.0 0.0 16.28999089631971 0.0 0.0 0.0 34.45770212530097" Properties=species:S:1:pos:R:3:initial_magmoms:R:1 pbc="T T T"
Si       0.29211228      -0.40324266       2.48633134       0.00000000
Si       2.09339532      -1.34697123      -0.61507033       0.00000000
Si      -1.72533906      -1.57913631      -1.06467468       0.00000000
Si      -0.17811486       2.26686753      -1.51551950       0.00000000
Si       2.60736111      -0.11034846      -2.51179560       0.00000000
Si      -3.25679454      -1.79328465       0.75662265       0.00000000
Si       1.03048911       1.43575173      -3.38850341       0.00000000
Si       1.27764099       3.78727839      -0.47344909       0.00000000
Si       1.99036107      -2.14369884       2.79457017       0.00000000
Si      -0.68724252      -3.81982581      -1.14633947       0.00000000
