10
Lattice="16.28999089631971 0.0 0.0 0.0 16.28999089631971 0.0 0.0 0.0 34.45770212530097" Properties=species:S:1:pos:R:3:initial_magmoms:R:1 pbc="T T T"
Si       1.36407573       1.31999077       1.35057039       0.00000000
Si       1.35281934      -1.35923760      -1.35887470       0.00000000
Si      -1.36133901       1.35695930      -1.35956385       0.00000000
Si      -1.37134107      -1.36238157       1.38072090       0.00000000
Si      -0.00120546       2.58299846       2.70541354       0.00000000
Si       2.71124244      -2.71471221       0.00006892       0.00000000
Si       2.71233387      -0.00060680      -2.71595760       0.00000000
Si      -0.00320913       2.71457279      -2.71578531       0.00000000
Si       2.71639008       2.71467053      -0.00003446       0.00000000
Si      -0.00294849      -2.71568961      -2.71599206       0.00000000
