10
Lattice="16.28999089631971 0.0 0.0 0.0 16.28999089631971 0.0 0.0 0.0 34.45770212530097" Properties=species:S:1:pos:R:3:initial_magmoms:R:1 pbc="T T T"
Si       1.42473969      -1.23579198      -1.32796612       0.00000000
Si       1.63584180       1.04938551       1.26356464       0.00000000
Si      -0.89448390      -1.79128098       1.19495932       0.00000000
Si      -1.31865921       1.49573151      -1.29726429       0.00000000
Si      -1.50926850      -0.72997119       3.10932695       0.00000000
Si       2.64357378      -2.56318263       0.27455912       0.00000000
Si       0.05149269      -2.57124618      -2.67888109       0.00000000
Si       3.46869486      -0.65015019       1.34350656       0.00000000
Si      -2.66538609       0.14384070      -2.67888109       0.00000000
Si      -2.75265162      -2.62153341       0.04999815       0.00000000
