10
Lattice="16.28999089631971 0.0 0.0 0.0 16.28999089631971 0.0 0.0 0.0 34.45770212530097" Properties=species:S:1:pos:R:3:initial_magmoms:R:1 pbc="T T T"
Si      -1.08116730      -1.73791494       1.13641565       0.00000000
Si       0.83546523       1.79026190       1.32066109       0.00000000
Si       1.39896891      -1.26607509      -1.45197946       0.00000000
Si      -1.30025151       1.39080340      -1.45456379       0.00000000
Si       0.43232031       0.48125777       3.29546756       0.00000000
Si      -1.76067207      -0.28404873       3.04075608       0.00000000
Si       0.75168576      -3.43745064       1.21635756       0.00000000
Si      -2.66553270       2.65381109      -0.09972065       0.00000000
Si       2.64984543      -2.67369399      -0.09451753       0.00000000
Si      -0.94744269       3.42294344       1.29485225       0.00000000
