10
Lattice="16.28999089631971 0.0 0.0 0.0 16.28999089631971 0.0 0.0 0.0 34.45770212530097" Properties=species:S:1:pos:R:3:initial_magmoms:R:1 pbc="T T T"
Si       1.35780408      -1.35862680       1.36080433       0.00000000
Si      -1.36024758       1.35864301       1.36011518       0.00000000
Si       1.35612621       1.36848217      -1.38134458       0.00000000
Si      -1.37901366      -1.36875981      -1.35967412       0.00000000
Si       2.66818797      -0.08869905      -2.75227948       0.00000000
Si       2.71296918      -2.71352208       0.00592673       0.00000000
Si      -2.71345788      -2.71388046       0.00261879       0.00000000
Si       2.71034649       2.71758739       0.00110265       0.00000000
Si       2.71293660       0.00033883       2.71819735       0.00000000
Si      -0.00162900      -2.71445061       2.71826627       0.00000000
