10
Lattice="16.28999089631971 0.0 0.0 0.0 16.28999089631971 0.0 0.0 0.0 34.45770212530097" Properties=species:S:1:pos:R:3:initial_magmoms:R:1 pbc="T T T"
Si      -1.62935838       1.28093320      -1.12115088       0.00000000
Si      -0.08834067      -2.35883014      -0.02077801       0.00000000
Si      -0.32177637       0.80644297       2.21163439       0.00000000
Si       1.93743486       0.17386317      -1.36500817       0.00000000
Si       1.68171444      -2.53507165       1.62685240       0.00000000
Si      -1.15564518       0.41371550      -3.23709618       0.00000000
Si       3.31266924       1.65967570      -0.25622762       0.00000000
Si       0.84641211      -2.92987609      -2.18300002       0.00000000
Si       1.14372090       0.90615568      -3.50724471       0.00000000
Si       0.19201023       3.14195167       2.13810161       0.00000000
