10
Lattice="16.28999089631971 0.0 0.0 0.0 16.28999089631971 0.0 0.0 0.0 34.45770212530097" Properties=species:S:1:pos:R:3:initial_magmoms:R:1 pbc="T T T"
Si       0.29092311       0.06018340       2.32596511       0.00000000
Si      -1.48877568      -1.81251078      -0.19902780       0.00000000
Si      -1.40743971       1.45036712      -1.24537097       0.00000000
Si       2.34905058       0.26033864      -0.67878265       0.00000000
Si      -1.12256019       0.23075762      -3.23289234       0.00000000
Si      -1.40615280      -2.00414634      -2.50407707       0.00000000
Si       0.80545905       2.37174581       2.54621886       0.00000000
Si       2.23133904      -1.38385572       2.62812487       0.00000000
Si      -0.69294402       3.62737901      -0.87253842       0.00000000
Si      -0.44800758      -3.77384307       0.59567063       0.00000000
