10
Lattice="16.28999089631971 0.0 0.0 0.0 16.28999089631971 0.0 0.0 0.0 34.45770212530097" Properties=species:S:1:pos:R:3:initial_magmoms:R:1 pbc="T T T"
Si      -1.35066906      -1.34988714       1.39903517       0.00000000
Si       1.36576989       1.36477620       1.39441784       0.00000000
Si       1.34957763      -1.40610393      -1.54215187       0.00000000
Si      -1.41255477       1.44880002      -1.44801338       0.00000000
Si       2.56903074       0.36165429      -2.55584153       0.00000000
Si      -2.69175960      -2.69563662       0.02412385       0.00000000
Si       2.72347623      -2.69656515       0.01410699       0.00000000
Si      -2.71086777       2.73616614       0.03394775       0.00000000
Si       2.73290814       2.72893338       0.02885145       0.00000000
Si       0.00710244      -2.70640431       2.75556675       0.00000000
