10
Lattice="16.28999089631971 0.0 0.0 0.0 16.28999089631971 0.0 0.0 0.0 34.45770212530097" Properties=species:S:1:pos:R:3:initial_magmoms:R:1 pbc="T T T"
Si       1.35681039      -1.35721764      -1.35739302       0.00000000
Si       1.35742941       1.35734796       1.35739302       0.00000000
Si      -1.35799956       1.35806472      -1.35753085       0.00000000
Si      -1.35830907      -1.35708732       1.35822000       0.00000000
Si      -0.00166158      -2.71376739      -2.71537182       0.00000000
Si       2.71446786      -2.71472850       0.00017229       0.00000000
Si      -2.71536381       0.00030951      -2.71389014       0.00000000
Si       2.71544526      -0.00071676       2.71426917       0.00000000
Si       2.71469592       2.71526607      -0.00003446       0.00000000
Si       2.71542897      -0.00055386      -2.71488941       0.00000000
