10
Lattice="16.28999089631971 0.0 0.0 0.0 16.28999089631971 0.0 0.0 0.0 34.45770212530097" Properties=species:S:1:pos:R:3:initial_magmoms:R:1 pbc="T T T"
Si       1.35536058      -1.35757602      -1.35715181       0.00000000
Si      -1.35801585       1.35806472      -1.35687615       0.00000000
Si      -1.34040636      -1.37790594       1.35915036       0.00000000
Si       1.36164852       1.35821133       1.38585510       0.00000000
Si      -0.21608685       2.49634476       2.82529195       0.00000000
Si      -2.71147050      -2.71391400       0.00168843       0.00000000
Si       2.71472850      -2.71220355       0.00334240       0.00000000
Si       2.71388142       0.00096111      -2.71382122       0.00000000
Si      -0.00097740      -2.71401174      -2.71409688       0.00000000
Si      -2.71544526       0.00071676      -2.71426917       0.00000000
