10
Lattice="16.28999089631971 0.0 0.0 0.0 16.28999089631971 0.0 0.0 0.0 34.45770212530097" Properties=species:S:1:pos:R:3:initial_magmoms:R:1 pbc="T T T"
Si      -1.35742941      -1.35734796      -1.35739302       0.00000000
Si       1.35726651       1.35791811      -1.35742748       0.00000000
Si       1.35801585      -1.35806472       1.35687615       0.00000000
Si      -1.35742941       1.36119240       1.35994289       0.00000000
Si       2.71492398       2.71376739      -0.00013783       0.00000000
Si       2.71337643      -2.71564074      -0.00027566       0.00000000
Si       2.71437012       0.00063531      -2.71475158       0.00000000
Si      -0.00061902      -2.71456560      -2.71478604       0.00000000
Si      -0.00017919       2.71521720      -2.71461375       0.00000000
Si      -2.71573848      -2.71443528       0.00082699       0.00000000
