10
Lattice="16.28999089631971 0.0 0.0 0.0 16.28999089631971 0.0 0.0 0.0 34.45770212530097" Properties=species:S:1:pos:R:3:initial_magmoms:R:1 pbc="T T T"
Si       1.25087652      -1.40761890       1.35746193       0.00000000
Si       1.36200690       1.33678679      -1.35094942       0.00000000
Si      -1.35205371      -1.37782449      -1.35308580       0.00000000
Si      -1.39896891       1.26607509       1.45197946       0.00000000
Si      -0.64728315      -2.17137555       2.66833703       0.00000000
Si      -2.48013621      -0.47183985       2.58839511       0.00000000
Si       2.59374267      -0.02577078       2.64421662       0.00000000
Si      -2.69922042       2.65687849      -0.00258433       0.00000000
Si       0.00501732       2.69294781      -2.71175376       0.00000000
Si      -2.71047681      -0.02234988      -2.71202942       0.00000000
