10
Lattice="16.28999089631971 0.0 0.0 0.0 16.28999089631971 0.0 0.0 0.0 34.45770212530097" Properties=species:S:1:pos:R:3:initial_magmoms:R:1 pbc="T T T"
Si       1.35567009       1.35817875       1.35746193       0.00000000
Si      -1.35756625       1.35705474      -1.35708290       0.00000000
Si       1.35703845      -1.35738054      -1.35742748       0.00000000
Si      -1.35771286      -1.35860229       1.35770314       0.00000000
Si       0.00114030       2.71427238       2.71134026       0.00000000
Si      -2.71227340      -0.00032580      -2.71420026       0.00000000
Si       2.71508688      -0.00019548      -2.71389014       0.00000000
Si       0.00128691       2.71476108      -2.71444146       0.00000000
Si      -0.00167787      -2.71472850      -2.71482049       0.00000000
Si       2.71471221       2.71489140      -0.00041349       0.00000000
