10
Lattice="16.28999089631971 0.0 0.0 0.0 16.28999089631971 0.0 0.0 0.0 34.45770212530097" Properties=species:S:1:pos:R:3:initial_magmoms:R:1 pbc="T T T"
Si      -1.35610992      -1.33280644       1.37454607       0.00000000
Si      -1.40089113       1.29201659      -1.38366014       0.00000000
Si       1.36257705       1.37888139       1.36875717       0.00000000
Si       1.43200503      -1.34049532      -1.47429084       0.00000000
Si       0.41203926       1.99378164      -2.79688642       0.00000000
Si       2.32140645       0.57961416      -2.57359277       0.00000000
Si      -2.69177589      -2.68442032       0.00803899       0.00000000
Si       2.72595231      -2.67598210       0.00699836       0.00000000
Si       0.00058644      -2.68979602       2.72994054       0.00000000
Si      -2.71127502       0.02208884       2.72942368       0.00000000
