10
Lattice="16.28999089631971 0.0 0.0 0.0 16.28999089631971 0.0 0.0 0.0 34.45770212530097" Properties=species:S:1:pos:R:3:initial_magmoms:R:1 pbc="T T T"
Si       1.35477414      -1.35968069      -1.35980506       0.00000000
Si      -1.35936792       1.35462753      -1.36049421       0.00000000
Si       1.34529336       1.33907058       1.39581338       0.00000000
Si      -1.34182359      -1.36432822       1.38475245       0.00000000
Si       2.71350650      -2.71296008      -0.00031012       0.00000000
Si      -2.71472850       2.71220355      -0.00334240       0.00000000
Si       2.71517687       2.71225242       0.00527203       0.00000000
Si      -0.00084708       2.71316466      -2.71716362       0.00000000
Si       2.71423769      -0.00190593      -2.71768049       0.00000000
Si      -2.71570590      -0.00180819      -2.71743928       0.00000000
