10
Lattice="16.28999089631971 0.0 0.0 0.0 16.28999089631971 0.0 0.0 0.0 34.45770212530097" Properties=species:S:1:pos:R:3:initial_magmoms:R:1 pbc="T T T"
Si      -1.03977441      -1.76823552      -1.13131591       0.00000000
Si       1.91203453       1.11694014      -0.88935379       0.00000000
Si      -1.23338106       1.34570061       1.62061555       0.00000000
Si       0.70064660      -1.91634094       1.54077701       0.00000000
Si      -0.00405621      -0.17340705       3.07328417       0.00000000
Si      -3.47610681       0.63242667       1.42727328       0.00000000
Si       3.79779263      -0.51381918      -0.32093922       0.00000000
Si       3.06427022      -2.00654030       1.36993563       0.00000000
Si       1.25903685       1.55869236      -3.36762203       0.00000000
Si       2.25672605       3.02275611       1.35880578       0.00000000
