10
Lattice="16.28999089631971 0.0 0.0 0.0 16.28999089631971 0.0 0.0 0.0 34.45770212530097" Properties=species:S:1:pos:R:3:initial_magmoms:R:1 pbc="T T T"
Si       1.53222111       0.75308018      -1.54301676       0.00000000
Si      -1.62536733       1.67297648       0.36659570       0.00000000
Si      -0.24803154      -1.99330697      -1.38881846       0.00000000
Si       1.39211082       0.65043689       1.94365669       0.00000000
Si      -2.11173786      -1.19433409       1.94145140       0.00000000
Si      -1.68819786      -2.91717803       0.26773650       0.00000000
Si      -0.42081957      -0.05132816       3.35688297       0.00000000
Si       3.13404939      -1.01683972      -1.48340491       0.00000000
Si      -0.59943942       3.83656541       0.32269656       0.00000000
Si       0.72826074       1.14013058      -3.72711943       0.00000000
