10
Lattice="16.28999089631971 0.0 0.0 0.0 16.28999089631971 0.0 0.0 0.0 34.45770212530097" Properties=species:S:1:pos:R:3:initial_magmoms:R:1 pbc="T T T"
Si      -1.35741590      -1.35672894      -1.35777205       0.00000000
Si       1.35771286       1.35860229      -1.35770314       0.00000000
Si       1.35624676      -1.35811359       1.36070096       0.00000000
Si      -1.35647672       1.35742941       1.36518046       0.00000000
Si       0.00742335      -2.71078306       2.71733591       0.00000000
Si       2.71440922      -2.71424469      -0.00127494       0.00000000
Si       0.00015964      -2.71410296      -2.71485495       0.00000000
Si      -2.71477804       0.00144981      -2.71471712       0.00000000
Si       2.71475131       0.00122175      -2.71513061       0.00000000
Si       0.03040529       2.70883152       2.72091951       0.00000000
