10
Lattice="16.28999089631971 0.0 0.0 0.0 16.28999089631971 0.0 0.0 0.0 34.45770212530097" Properties=species:S:1:pos:R:3:initial_magmoms:R:1 pbc="T T T"
Si      -1.35633798      -1.35643572      -1.35694507       0.00000000
Si      -1.35536058       1.35757602       1.35715181       0.00000000
Si       1.35852084       1.35853713      -1.35666941       0.00000000
Si       1.35936792      -1.35462753       1.36049421       0.00000000
Si      -2.69576694      -0.02032992       2.71630218       0.00000000
Si       0.00071676      -2.71377879      -2.71440700       0.00000000
Si       2.71414206      -2.71430822       0.00068915       0.00000000
Si      -2.71399545       0.00107514      -2.71451038       0.00000000
Si      -2.71337643       2.71564074       0.00027566       0.00000000
Si      -2.71490769      -2.71494841       0.00027566       0.00000000
