10
Lattice="16.28999089631971 0.0 0.0 0.0 16.28999089631971 0.0 0.0 0.0 34.45770212530097" Properties=species:S:1:pos:R:3:initial_magmoms:R:1 pbc="T T T"
Si      -0.64596366      -2.15195787       0.66841088       0.00000000
Si      -0.23969106       1.06950366      -2.15023073       0.00000000
Si       2.32816421      -0.71786772      -0.35181334       0.00000000
Si      -1.42301295       0.81147006       1.88986819       0.00000000
Si       1.24268679      -2.46037644       2.27941540       0.00000000
Si       2.18696575      -1.16682012      -2.73301417       0.00000000
Si      -1.16989893      -0.80003448      -3.45841812       0.00000000
Si       0.20075796      -3.67199406      -0.87929213       0.00000000
Si       0.30274965      -2.53697202      -2.91253890       0.00000000
Si       3.71319866       1.26001521       0.30160844       0.00000000
