10
Lattice="16.28999089631971 0.0 0.0 0.0 16.28999089631971 0.0 0.0 0.0 34.45770212530097" Properties=species:S:1:pos:R:3:initial_magmoms:R:1 pbc="T T T"
Si      -1.43892828       1.19566971       1.48851843       0.00000000
Si       0.91836504       1.74672783      -1.35064072       0.00000000
Si      -1.40313915      -1.10539053      -1.61434566       0.00000000
Si       1.24954074      -1.48302531       1.47909424       0.00000000
Si      -2.63342511       2.63021598       0.12625998       0.00000000
Si      -0.88555698       3.43844433      -1.32104154       0.00000000
Si      -2.69333973      -2.66515803       0.01805240       0.00000000
Si       2.51782868      -2.84783409       0.09955180       0.00000000
Si       2.65754475       2.75364531       0.00158506       0.00000000
Si      -0.09687663       2.56776012       2.84270688       0.00000000
