10
Lattice="16.28999089631971 0.0 0.0 0.0 16.28999089631971 0.0 0.0 0.0 34.45770212530097" Properties=species:S:1:pos:R:3:initial_magmoms:R:1 pbc="T T T"
Si       1.85926729       0.86740992      -1.27845038       0.00000000
Si      -1.74957762       1.68777432      -0.00599564       0.00000000
Si      -0.90924997      -1.90663047      -1.25584611       0.00000000
Si       0.65299768      -0.44175222       2.47826824       0.00000000
Si       0.42741050       2.23005213      -2.76295793       0.00000000
Si      -2.32935501      -0.49453182      -2.72815563       0.00000000
Si      -0.98691240       3.50217081      -1.41827981       0.00000000
Si       3.33595579       2.02838193       0.23775828       0.00000000
Si      -1.25903685      -1.55869236       3.36762203       0.00000000
Si      -1.51159701       3.09570273       1.88904120       0.00000000
