10
Lattice="16.28999089631971 0.0 0.0 0.0 16.28999089631971 0.0 0.0 0.0 34.45770212530097" Properties=species:S:1:pos:R:3:initial_magmoms:R:1 pbc="T T T"
Si       1.40225949      -1.28036142      -1.46018040       0.00000000
Si      -1.29865509       1.43974278      -1.45259970       0.00000000
Si       1.97578152       0.87485445       1.32989576       0.00000000
Si      -1.53420849      -1.46593710       1.43140820       0.00000000
Si       0.52787745       0.26344188       3.28812806       0.00000000
Si       0.04046436      -2.08984410       3.18968235       0.00000000
Si       2.70431919       2.73455343      -0.14706555       0.00000000
Si       0.06004494      -2.62342305      -2.82763507       0.00000000
Si       2.74817187      -2.71803537      -0.11970612       0.00000000
Si      -2.65250070       0.08933436      -2.82308666       0.00000000
