10
Lattice="16.28999089631971 0.0 0.0 0.0 16.28999089631971 0.0 0.0 0.0 34.45770212530097" Properties=species:S:1:pos:R:3:initial_magmoms:R:1 pbc="T T T"
Si       1.21912731       0.42327936      -1.98190476       0.00000000
Si      -1.45191141      -1.60003638       1.02046542       0.00000000
Si       1.86769737       0.35165223       1.60014767       0.00000000
Si      -1.72910205       0.90598464      -1.54635916       0.00000000
Si      -0.06737544       1.55271393       2.56393013       0.00000000
Si      -3.30429618      -0.25904358       1.44705201       0.00000000
Si       0.40695678       3.50399529       1.28279205       0.00000000
Si       1.70654040       2.77656534      -1.88345905       0.00000000
Si      -3.42181224      -0.90274293      -1.37427730       0.00000000
Si      -2.35476837       2.97194760      -0.44360871       0.00000000
