10
Lattice="16.28999089631971 0.0 0.0 0.0 16.28999089631971 0.0 0.0 0.0 34.45770212530097" Properties=species:S:1:pos:R:3:initial_magmoms:R:1 pbc="T T T"
Si      -1.64012607       1.48480092      -0.74831834       0.00000000
Si       1.96454372      -0.10792125      -1.33675284       0.00000000
Si       0.23969106      -1.06950366       2.15023073       0.00000000
Si      -0.93020787      -1.86953814      -1.30818739       0.00000000
Si       2.42665681      -2.23632378      -0.58278344       0.00000000
Si      -2.28784905       0.39170934      -2.72329709       0.00000000
Si       2.56785527      -1.78737138       1.79841739       0.00000000
Si      -0.45160767       3.04064253      -2.05977921       0.00000000
Si       0.54244071      -3.60647568      -0.76230817       0.00000000
Si       1.52066370      -0.28929411      -3.63549635       0.00000000
