10
Lattice="16.28999089631971 0.0 0.0 0.0 16.28999089631971 0.0 0.0 0.0 34.45770212530097" Properties=species:S:1:pos:R:3:initial_magmoms:R:1 pbc="T T T"
Si       1.34480466       1.34521191       1.35294797       0.00000000
Si      -1.35681039       1.35381303      -1.35708290       0.00000000
Si       1.35695700      -1.36005210      -1.35708290       0.00000000
Si      -1.35778779      -1.36764324       1.37551778       0.00000000
Si       2.64518649      -0.07283259       2.68105193       0.00000000
Si       0.00074934       2.71219284      -2.71485495       0.00000000
Si      -2.71598283       2.71231439       0.00330794       0.00000000
Si      -2.71451673      -0.00280188      -2.71495833       0.00000000
Si      -2.71163340      -2.71805166       0.00503083       0.00000000
Si       2.71511777      -0.00268785      -2.71492387       0.00000000
