10
Lattice="16.28999089631971 0.0 0.0 0.0 16.28999089631971 0.0 0.0 0.0 34.45770212530097" Properties=species:S:1:pos:R:3:initial_magmoms:R:1 pbc="T T T"
Si       1.81692048       1.38544821       0.55084113       0.00000000
Si      -1.73390760       0.72400905       1.43027110       0.00000000
Si       0.22690341      -2.37659697       0.12260057       0.00000000
Si      -0.48229803       1.30921101      -1.94238175       0.00000000
Si      -2.56920993       0.32920461      -2.37958132       0.00000000
Si      -0.48772260       2.33504118       2.72770768       0.00000000
Si      -3.50396271       0.90025056      -0.21735931       0.00000000
Si       0.85889025      -2.61879669       2.38898828       0.00000000
Si       3.54018257       0.96853824      -0.91306070       0.00000000
Si       0.96659973       3.51331547       1.18586248       0.00000000
