10
Lattice="16.28999089631971 0.0 0.0 0.0 16.28999089631971 0.0 0.0 0.0 34.45770212530097" Properties=species:S:1:pos:R:3:initial_magmoms:R:1 pbc="T T T"
Si      -1.74786813      -0.80822835       1.44730152       0.00000000
Si       0.86314194       1.83941793       1.31956330       0.00000000
Si      -1.30592043       0.07986987      -2.07490615       0.00000000
Si       1.80392202      -1.69171650      -0.02959918       0.00000000
Si       2.15708922       0.50393115       2.80085251       0.00000000
Si      -0.55337130      -2.24277462       2.80955997       0.00000000
Si       0.43940646       1.32208011      -3.39791036       0.00000000
Si       0.88555698      -3.43844433       1.32104154       0.00000000
Si       3.54310173      -0.68479902       1.32262660       0.00000000
Si      -3.48570162      -1.77228684       0.20999642       0.00000000
