10
Lattice="16.28999089631971 0.0 0.0 0.0 16.28999089631971 0.0 0.0 0.0 34.45770212530097" Properties=species:S:1:pos:R:3:initial_magmoms:R:1 pbc="T T T"
Si      -0.46211309       2.12840253      -0.75396940       0.00000000
Si       1.52124817      -1.19446425      -1.27676195       0.00000000
Si      -1.88421610      -1.37015190      -0.17952473       0.00000000
Si       0.14119846       0.44895240       2.38120084       0.00000000
Si      -2.42665681       2.23632378       0.58278344       0.00000000
Si      -3.35686468       0.36678564      -0.72540395       0.00000000
Si       1.44229054      -3.23848458      -0.08355997       0.00000000
Si      -2.18696575       1.16682012       2.73301417       0.00000000
Si      -1.98620779      -2.50517394       1.85372204       0.00000000
Si      -0.90599311       1.94702967      -3.05271291       0.00000000
