10
Lattice="16.28999089631971 0.0 0.0 0.0 16.28999089631971 0.0 0.0 0.0 34.45770212530097" Properties=species:S:1:pos:R:3:initial_magmoms:R:1 pbc="T T T"
Si       2.16911124       0.59360760       0.32183512       0.00000000
Si      -1.52124817       1.19446425       1.27676195       0.00000000
Si      -0.07895763      -2.04402033       1.19320198       0.00000000
Si      -0.00575037       0.06431292      -2.42268793       0.00000000
Si      -1.49925667      -3.22452405      -0.21074342       0.00000000
Si       3.26169783      -1.42775334      -0.21298318       0.00000000
Si      -3.40546427      -0.17568765       1.09723722       0.00000000
Si       2.17624626      -2.68946271       1.40335962       0.00000000
Si      -0.47964276       2.32494138      -2.96932522       0.00000000
Si       2.57453676       1.59475842       2.40842244       0.00000000
