10
Lattice="16.28999089631971 0.0 0.0 0.0 16.28999089631971 0.0 0.0 0.0 34.45770212530097" Properties=species:S:1:pos:R:3:initial_magmoms:R:1 pbc="T T T"
Si       1.35634023       1.35620766       1.35818555       0.00000000
Si      -1.36058646       1.35459495      -1.35877133       0.00000000
Si      -1.35869682      -1.35878148       1.35811663       0.00000000
Si       1.35666929      -1.36058967      -1.36187252       0.00000000
Si      -2.70263811      -0.01749546      -2.71295978       0.00000000
Si      -0.01416909      -2.69619048      -2.72238396       0.00000000
Si       2.71322392       2.71538010      -0.00048241       0.00000000
Si       2.71384294      -0.00149868       2.71547519       0.00000000
Si      -0.00180667       2.71391400       2.71540628       0.00000000
Si       2.71503211      -2.71640637       0.00099927       0.00000000
