10
Lattice="16.28999089631971 0.0 0.0 0.0 16.28999089631971 0.0 0.0 0.0 34.45770212530097" Properties=species:S:1:pos:R:3:initial_magmoms:R:1 pbc="T T T"
Si      -1.35873236       1.35327939      -1.35949494       0.00000000
Si       1.35923689      -1.36166481      -1.35849567       0.00000000
Si       1.36557045       1.35700002       1.35773760       0.00000000
Si      -1.37000504      -1.37062431       1.35053593       0.00000000
Si       2.58081585      -0.05973543       2.75710012       0.00000000
Si       2.71439385       2.70966950       0.00110265       0.00000000
Si      -2.71350650       2.71296008       0.00031012       0.00000000
Si       0.00073119       2.71105415      -2.71737037       0.00000000
Si      -2.71480970      -2.71583622      -0.00241204       0.00000000
Si      -2.71406036      -0.00364338      -2.71726699       0.00000000
