10
Lattice="16.28999089631971 0.0 0.0 0.0 16.28999089631971 0.0 0.0 0.0 34.45770212530097" Properties=species:S:1:pos:R:3:initial_magmoms:R:1 pbc="T T T"
Si      -1.35120663      -1.34843733       1.35746193       0.00000000
Si      -1.35659048       1.35602847      -1.35629037       0.00000000
Si       1.35755973      -1.35884664      -1.35808217       0.00000000
Si       1.34672688       1.35189081       1.38161680       0.00000000
Si       2.66538609      -0.14384070       2.67888109       0.00000000
Si      -0.13501152       2.65795785       2.75930541       0.00000000
Si      -0.00021177       2.71427446      -2.71513061       0.00000000
Si       2.71511946      -0.00141723      -2.71509616       0.00000000
Si      -2.71551929      -0.00083079      -2.71513061       0.00000000
Si       0.00013032      -2.71624347      -2.71506170       0.00000000
