10
Lattice="16.28999089631971 0.0 0.0 0.0 16.28999089631971 0.0 0.0 0.0 34.45770212530097" Properties=species:S:1:pos:R:3:initial_magmoms:R:1 pbc="T T T"
Si       0.61478460      -1.06130979      -1.91436763       0.00000000
Si      -1.97597700      -0.99740412       0.89634871       0.00000000
Si      -1.04435190       2.19665763      -0.03514688       0.00000000
Si       2.13560271      -0.08164548       1.25512250       0.00000000
Si       1.66470768       2.08643949       2.07018544       0.00000000
Si      -0.69827085       2.35260180       2.33743953       0.00000000
Si       1.50926850       0.72997119      -3.10932695       0.00000000
Si      -1.24338312      -1.89156222      -3.05932879       0.00000000
Si      -1.76884965      -1.13958324       3.22693115       0.00000000
Si      -3.85229015       0.46439532       0.09896258       0.00000000
