10
Lattice="16.28999089631971 0.0 0.0 0.0 16.28999089631971 0.0 0.0 0.0 34.45770212530097" Properties=species:S:1:pos:R:3:initial_magmoms:R:1 pbc="T T T"
Si       1.32911739       1.19931867      -1.54360254       0.00000000
Si       0.24773832       0.52690005       2.29760640       0.00000000
Si      -2.03941745       1.16048331      -0.35057286       0.00000000
Si       0.25853859      -2.29286637      -0.65411092       0.00000000
Si       0.41474340      -1.79895357       2.98186784       0.00000000
Si       0.92181852       3.41955186      -0.80520803       0.00000000
Si       0.05141124      -2.15068725      -2.98469337       0.00000000
Si       2.38677822      -2.83788090       0.39199104       0.00000000
Si      -3.25268036       0.09519876      -1.99272449       0.00000000
Si      -1.44180509       3.50975122      -0.63436665       0.00000000
