10
Lattice="16.28999089631971 0.0 0.0 0.0 16.28999089631971 0.0 0.0 0.0 34.45770212530097" Properties=species:S:1:pos:R:3:initial_magmoms:R:1 pbc="T T T"
Si      -1.32911739      -1.19931867       1.54360254       0.00000000
Si      -0.40729887       2.22023319       0.73839451       0.00000000
Si       2.36297853      -0.26616231      -0.26725409       0.00000000
Si      -0.34608105      -0.15594417      -2.37258641       0.00000000
Si       1.07124669       1.91177226      -2.42334263       0.00000000
Si       0.69827085      -2.35260180      -2.33743953       0.00000000
Si      -3.36853484      -0.03883536       1.19302969       0.00000000
Si      -2.77092248       2.31043255       0.90923589       0.00000000
Si      -1.07057880      -3.49218504       0.88949162       0.00000000
Si       0.32622354       3.71295431      -0.95248033       0.00000000
