10
Lattice="16.28999089631971 0.0 0.0 0.0 16.28999089631971 0.0 0.0 0.0 34.45770212530097" Properties=species:S:1:pos:R:3:initial_magmoms:R:1 pbc="T T T"
Si      -1.72326208       0.41690997       1.46390184       0.00000000
Si      -0.24773832      -0.52690005      -2.29760640       0.00000000
Si       1.64667465       1.69521885       0.50115310       0.00000000
Si       0.16700508      -2.32585362       0.68426143       0.00000000
Si       2.49746877      -2.05003134       0.05127309       0.00000000
Si       3.33806535       0.17001873      -0.12287623       0.00000000
Si      -0.56054216      -0.35419347       3.40232095       0.00000000
Si      -2.28715577       0.63358326      -2.64817926       0.00000000
Si      -3.54018257      -0.96853824       0.91306070       0.00000000
Si      -0.50940622      -2.65983120       2.97738833       0.00000000
