10
Lattice="16.28999089631971 0.0 0.0 0.0 16.28999089631971 0.0 0.0 0.0 34.63643526849801" Properties=species:S:1:pos:R:3:initial_magmoms:R:1 pbc="T T T"
Si       1.05390924       2.02904397       0.46128830       0.00000000
Si       1.50559836      -0.97782354      -1.50135176       0.00000000
Si      -2.34505531      -0.05709645      -0.44829963       0.00000000
Si       0.14244465      -1.01796210       2.16027567       0.00000000
Si       0.09058706       2.27789001       2.61581433       0.00000000
Si      -1.33948990       0.43171758       3.20788988       0.00000000
Si      -3.15141031       0.02660157       1.75973971       0.00000000
Si       1.89861090      -3.05867556      -0.57337187       0.00000000
Si       0.31745789      -0.91636137      -3.56017726       0.00000000
Si       3.41504700       1.53178128       0.39125339       0.00000000
