10
Lattice="16.28999089631971 0.0 0.0 0.0 16.28999089631971 0.0 0.0 0.0 34.63643526849801" Properties=species:S:1:pos:R:3:initial_magmoms:R:1 pbc="T T T"
Si       0.48519765      -1.62580716       1.60976387       0.00000000
Si      -1.94190484      -0.65246337      -1.16077150       0.00000000
Si       2.03133042       0.64663155      -1.08398248       0.00000000
Si      -0.32257458       2.17905370       1.04757957       0.00000000
Si       2.11919868       2.06017677       0.83723238       0.00000000
Si      -1.99376242       2.64338874      -0.70523285       0.00000000
Si      -3.42383939       0.79721631      -0.11315730       0.00000000
Si       2.76444558      -1.55869236      -1.60578067       0.00000000
Si       0.24097797      -3.60095337       0.27847710       0.00000000
Si       1.33069752       1.89728001      -2.92979379       0.00000000
