10
Lattice="16.28999089631971 0.0 0.0 0.0 16.28999089631971 0.0 0.0 0.0 34.63643526849801" Properties=species:S:1:pos:R:3:initial_magmoms:R:1 pbc="T T T"
Si       1.39515053      -0.86177358       1.62015480       0.00000000
Si      -1.01735448       2.09738637       0.55709274       0.00000000
Si       1.76793089       0.08104275      -1.62368772       0.00000000
Si      -1.37479602      -1.87734105      -0.67568796       0.00000000
Si       1.90385465      -3.02935356       0.70952777       0.00000000
Si      -0.50072202      -3.53910024       0.74101231       0.00000000
Si      -2.72603117       2.35217826      -1.04210701       0.00000000
Si       1.52371121      -1.89410346      -2.95497449       0.00000000
Si      -0.70520876      -2.54817954      -2.80738856       0.00000000
Si       1.28273324       1.70684991      -3.23345159       0.00000000
