10
Lattice="16.28999089631971 0.0 0.0 0.0 16.28999089631971 0.0 0.0 0.0 34.63643526849801" Properties=species:S:1:pos:R:3:initial_magmoms:R:1 pbc="T T T"
Si       1.35679410       1.35705148      -1.35722947       0.00000000
Si      -1.35861858      -1.35834775      -1.35702166       0.00000000
Si       1.35588186      -1.35989391       1.36297913       0.00000000
Si      -1.36042677       1.36079818       1.36342940       0.00000000
Si      -0.00092853       2.71366639      -2.71511704       0.00000000
Si       2.71487511      -0.00048707      -2.71456286       0.00000000
Si      -2.71548436      -0.00095134      -2.71515168       0.00000000
Si      -0.00135207      -2.71539054      -2.71532486       0.00000000
Si      -2.71680059       2.71452976      -0.00110837       0.00000000
Si       2.71451673      -2.71708470      -0.00038100       0.00000000
