10
Lattice="16.28999089631971 0.0 0.0 0.0 16.28999089631971 0.0 0.0 0.0 34.63643526849801" Properties=species:S:1:pos:R:3:initial_magmoms:R:1 pbc="T T T"
Si      -0.43085421       1.62463428      -1.66639447       0.00000000
Si      -0.73458126       1.12531320       2.09581723       0.00000000
Si      -1.61665218      -1.93088139      -0.05943616       0.00000000
Si       1.57490091       1.24014141       2.61605678       0.00000000
Si      -0.99696429      -0.96678055       3.11142736       0.00000000
Si       2.96842896      -0.60918084       1.61606770       0.00000000
Si       3.42044388       0.39162789      -0.60191231       0.00000000
Si      -1.53298674       0.16935084      -3.19684085       0.00000000
Si       1.09579572      -2.18375106       2.60746694       0.00000000
Si      -1.46114784       3.28657266      -0.09466143       0.00000000
