10
Lattice="16.28999089631971 0.0 0.0 0.0 16.28999089631971 0.0 0.0 0.0 34.63643526849801" Properties=species:S:1:pos:R:3:initial_magmoms:R:1 pbc="T T T"
Si      -1.30274388      -1.91353743       0.77211585       0.00000000
Si       0.03924261       0.63882864       2.43984524       0.00000000
Si      -0.79177545       0.95736330      -2.57871868       0.00000000
Si       2.66918166      -1.06181478      -0.49537057       0.00000000
Si       0.55083006      -3.61353740       0.93695073       0.00000000
Si       3.53598885       1.08121617      -0.84748477       0.00000000
Si      -1.39199679      -3.51462777      -0.92520898       0.00000000
Si       1.83166389       2.34053091       2.56337616       0.00000000
Si       2.51310717       3.00408777       0.39873487       0.00000000
Si       0.90834669      -1.18877904       3.84183887       0.00000000
