10
Lattice="16.28999089631971 0.0 0.0 0.0 16.28999089631971 0.0 0.0 0.0 34.63643526849801" Properties=species:S:1:pos:R:3:initial_magmoms:R:1 pbc="T T T"
Si       1.35516510       1.35523026      -1.35792220       0.00000000
Si      -1.36003581       1.35466011       1.35861493       0.00000000
Si       1.35498591      -1.36140417       1.35916912       0.00000000
Si      -1.35910728      -1.35964485      -1.35750657       0.00000000
Si       2.71353933       2.71112841       0.00020782       0.00000000
Si      -2.71608057       2.71171485      -0.00051955       0.00000000
Si      -0.00179190       2.71262709      -2.71522095       0.00000000
Si       2.71287144      -0.00345348      -2.71497850       0.00000000
Si      -0.00102627      -2.71718340      -2.71483995       0.00000000
Si      -2.71682991      -0.00302994      -2.71539413       0.00000000
