10
Lattice="16.28999089631971 0.0 0.0 0.0 16.28999089631971 0.0 0.0 0.0 34.63643526849801" Properties=species:S:1:pos:R:3:initial_magmoms:R:1 pbc="T T T"
Si      -1.35604476       1.35705474      -1.35913448       0.00000000
Si       1.36003581      -1.35466011      -1.35861493       0.00000000
Si      -1.36479249      -1.34154666       1.37918899       0.00000000
Si       1.35456237       1.35477414       1.37842698       0.00000000
Si      -2.71629234      -2.71055826       0.00453738       0.00000000
Si      -2.71402803       0.00030951      -2.71605223       0.00000000
Si       0.00092853      -2.71430496      -2.71612150       0.00000000
Si       2.71573848       2.71529865       0.00304801       0.00000000
Si       2.71502172      -2.71606428       0.00055418       0.00000000
Si       0.00043983       2.71541268      -2.71615614       0.00000000
