10
Lattice="16.28999089631971 0.0 0.0 0.0 16.28999089631971 0.0 0.0 0.0 34.63643526849801" Properties=species:S:1:pos:R:3:initial_magmoms:R:1 pbc="T T T"
Si       1.34368065       1.42291521       1.35432001       0.00000000
Si      -1.25504676       1.44156726      -1.48188607       0.00000000
Si       1.46004012      -1.27013130      -1.47527051       0.00000000
Si      -1.60743204      -1.15167042       1.51458289       0.00000000
Si      -0.30452526       1.20617676       3.25960211       0.00000000
Si      -2.70956457      -2.60695386      -0.01586350       0.00000000
Si      -2.62210356       2.84436432      -0.08790732       0.00000000
Si      -2.60960913       0.08679312      -2.86031306       0.00000000
Si       0.10541259      -2.62927116      -2.85975888       0.00000000
Si       2.93871600      -2.55795354      -0.06477017       0.00000000
