10
Lattice="16.28999089631971 0.0 0.0 0.0 16.28999089631971 0.0 0.0 0.0 34.63643526849801" Properties=species:S:1:pos:R:3:initial_magmoms:R:1 pbc="T T T"
Si       1.45526715      -1.76454909       0.55837429       0.00000000
Si      -1.83076794      -0.25348869       1.46477567       0.00000000
Si       0.92391993       2.16700983       0.21287565       0.00000000
Si      -1.05194304      -0.71856819      -2.08147774       0.00000000
Si      -1.66143339      -2.59680519       1.65011533       0.00000000
Si      -0.96169644       3.36774573      -0.53502931       0.00000000
Si       0.46670850      -2.46806532       2.55294916       0.00000000
Si       0.07157826       0.69136389      -3.56028117       0.00000000
Si      -3.57135444       0.75409668       0.26427615       0.00000000
Si       2.70124038       2.11118400      -1.40759088       0.00000000
