10
Lattice="16.28999089631971 0.0 0.0 0.0 16.28999089631971 0.0 0.0 0.0 34.63643526849801" Properties=species:S:1:pos:R:3:initial_magmoms:R:1 pbc="T T T"
Si       2.09199438       0.85654449       0.59553920       0.00000000
Si      -0.68144328      -0.66355686       2.16464129       0.00000000
Si       1.02288168      -1.92287160      -1.24621964       0.00000000
Si      -0.94827348       2.12030640      -0.95160195       0.00000000
Si       2.87145459       1.29158523      -1.68437079       0.00000000
Si       1.13502204       2.97952245      -1.77927467       0.00000000
Si       3.31196877      -1.22621346      -1.30184578       0.00000000
Si       3.48009786      -1.09335222       0.97133681       0.00000000
Si       0.62990172      -1.47255084      -3.51172086       0.00000000
Si       1.09678941      -1.51379712       3.46205707       0.00000000
