10
Lattice="16.28999089631971 0.0 0.0 0.0 16.28999089631971 0.0 0.0 0.0 34.63643526849801" Properties=species:S:1:pos:R:3:initial_magmoms:R:1 pbc="T T T"
Si      -1.35897696       1.35694071      -1.36200931       0.00000000
Si       1.35783666      -1.35883035      -1.36145512       0.00000000
Si      -1.36117611      -1.36052451       1.37537898       0.00000000
Si       1.34910522       1.37371941       1.38964920       0.00000000
Si       2.71427238       2.71285515       0.00034636       0.00000000
Si       2.71673217      -2.71254564      -0.00561111       0.00000000
Si      -2.71573848      -2.71529865      -0.00304801       0.00000000
Si      -2.71428867       2.71722087      -0.00536865       0.00000000
Si      -0.00053757      -2.71472850      -2.71958514       0.00000000
Si      -0.00017919       2.71516833      -2.71930805       0.00000000
