10
Lattice="16.28999089631971 0.0 0.0 0.0 16.28999089631971 0.0 0.0 0.0 34.63643526849801" Properties=species:S:1:pos:R:3:initial_magmoms:R:1 pbc="T T T"
Si      -1.30267872       1.22811939      -1.51849681       0.00000000
Si      -1.40685327      -1.35343836       1.34088107       0.00000000
Si       0.95420304       1.86921234       1.26118259       0.00000000
Si       1.41734403      -1.47188295      -1.48912509       0.00000000
Si       0.35956917      -2.31733395       2.68484478       0.00000000
Si      -2.63995740       2.59805952      -0.09154415       0.00000000
Si       2.70182682       2.60161074      -0.15077249       0.00000000
Si      -0.76015656       3.60707841       0.96292808       0.00000000
Si      -2.65999410      -2.80332981      -0.10941656       0.00000000
Si       0.06470388       2.58756876      -2.88168375       0.00000000
