10
Lattice="16.28999089631971 0.0 0.0 0.0 16.28999089631971 0.0 0.0 0.0 34.63643526849801" Properties=species:S:1:pos:R:3:initial_magmoms:R:1 pbc="T T T"
Si       1.35798327      -1.35521397       1.35695238       0.00000000
Si       1.35718506       1.35742941      -1.35712557       0.00000000
Si      -1.35762489      -1.35754344      -1.35719484       0.00000000
Si      -1.36073628       1.35656604       1.35982721       0.00000000
Si       2.70135441       0.00128691       2.72259852       0.00000000
Si      -2.71504941      -2.71337643       0.00010391       0.00000000
Si       2.71329498      -2.71549413       0.00031173       0.00000000
Si      -0.00140094      -2.71480995      -2.71404331       0.00000000
Si       2.71518462       2.71381626       0.00000000       0.00000000
Si      -2.71475619       2.71430496       0.00069273       0.00000000
