10
Lattice="16.28999089631971 0.0 0.0 0.0 16.28999089631971 0.0 0.0 0.0 34.63643526849801" Properties=species:S:1:pos:R:3:initial_magmoms:R:1 pbc="T T T"
Si      -1.08496287       1.14849063      -1.72319825       0.00000000
Si       2.21607531       0.84574422      -0.16767508       0.00000000
Si      -0.36165429      -2.32829712      -0.36319786       0.00000000
Si      -0.82425771       0.29354580       2.22383357       0.00000000
Si       0.37958958      -3.02562315       1.79323317       0.00000000
Si       3.48469164      -0.97423974       0.80879585       0.00000000
Si       2.15598150      -1.67844015       2.61345905       0.00000000
Si      -1.38424275      -1.97882775       2.95954650       0.00000000
Si      -1.17283113      -0.26505459      -3.64441312       0.00000000
Si      -2.71896390      -2.53749330      -0.95066677       0.00000000
