10
Lattice="16.28999089631971 0.0 0.0 0.0 16.28999089631971 0.0 0.0 0.0 34.63643526849801" Properties=species:S:1:pos:R:3:initial_magmoms:R:1 pbc="T T T"
Si       1.76383233      -1.04679540      -1.16631334       0.00000000
Si      -1.70750151      -1.50148188      -0.66637075       0.00000000
Si       0.55998504       2.27237355      -0.73571293       0.00000000
Si      -0.52061211      -0.82481157       2.28098372       0.00000000
Si       2.43190152       2.13794847       0.80976567       0.00000000
Si       1.02258846      -0.34946937      -3.32274437       0.00000000
Si      -2.40362208      -2.13819282       1.44735353       0.00000000
Si       3.54022425       0.30038760      -0.34608745       0.00000000
Si       1.38424275       1.97882775      -2.95954650       0.00000000
Si      -3.10265204      -0.63970830      -2.28652555       0.00000000
