10
Lattice="16.28999089631971 0.0 0.0 0.0 16.28999089631971 0.0 0.0 0.0 34.63643526849801" Properties=species:S:1:pos:R:3:initial_magmoms:R:1 pbc="T T T"
Si       1.24111881      -1.42534568      -1.43699723       0.00000000
Si      -0.81461403      -1.81578928       1.31157863       0.00000000
Si       1.77402987       0.82707588       1.36536904       0.00000000
Si      -1.47867588       1.28782224      -1.41050034       0.00000000
Si      -0.69484995       0.17327673       2.64383522       0.00000000
Si       2.59607214       2.64888432      -0.08804587       0.00000000
Si      -2.63722068      -2.61590847      -0.08087612       0.00000000
Si       2.53599462      -2.78892035      -0.03387445       0.00000000
Si       3.39123591      -1.01019177       1.32917395       0.00000000
Si       2.59447572      -0.06990039      -2.79401889       0.00000000
