10
Lattice="16.28999089631971 0.0 0.0 0.0 16.28999089631971 0.0 0.0 0.0 34.63643526849801" Properties=species:S:1:pos:R:3:initial_magmoms:R:1 pbc="T T T"
Si       2.23513461       0.46915037       0.03321636       0.00000000
Si      -0.94218102       2.04233431       0.67863206       0.00000000
Si      -0.76416390      -0.78475350      -2.08126992       0.00000000
Si      -0.28773027      -1.67246076       1.73902711       0.00000000
Si      -2.37048822      -2.36776683       0.73903803       0.00000000
Si       2.21094396       1.40205586       2.27887090       0.00000000
Si      -0.12070890      -3.10029555      -1.82825062       0.00000000
Si       0.09749565       2.32001365       2.76211871       0.00000000
Si      -3.13483131       1.30890150       1.24213254       0.00000000
Si       3.22188507      -1.65988488      -0.43884388       0.00000000
