10
Lattice="16.28999089631971 0.0 0.0 0.0 16.28999089631971 0.0 0.0 0.0 34.63643526849801" Properties=species:S:1:pos:R:3:initial_magmoms:R:1 pbc="T T T"
Si       1.33477002       1.35241209       1.36907514       0.00000000
Si      -1.35889551       1.35371529      -1.35584402       0.00000000
Si       1.35480672      -1.36124127      -1.35660602       0.00000000
Si      -1.36282140      -1.35967743       1.38760565       0.00000000
Si       2.71192662       0.00138465       2.71006012       0.00000000
Si      -0.00149868       2.71231758      -2.71383549       0.00000000
Si       2.71318095      -0.00244350      -2.71397404       0.00000000
Si       2.71033020      -2.71740006       0.00408710       0.00000000
Si       2.71440270       2.71404432       0.00256310       0.00000000
Si      -2.71673217       2.71254564       0.00561111       0.00000000
