10
Lattice="16.28999089631971 0.0 0.0 0.0 16.28999089631971 0.0 0.0 0.0 34.63643526849801" Properties=species:S:1:pos:R:3:initial_magmoms:R:1 pbc="T T T"
Si      -1.34368065      -1.42291521      -1.35432001       0.00000000
Si       1.43438337       1.34456031      -1.39463685       0.00000000
Si      -0.94622094       1.90744497       1.35203401       0.00000000
Si      -1.64820591      -0.21673845       1.90528210       0.00000000
Si       2.85246045      -1.00931211       0.85583216       0.00000000
Si      -2.59872741       0.01865205      -2.83620609       0.00000000
Si       0.11635947      -2.69304651      -2.82959052       0.00000000
Si      -2.95111269      -2.57458563       0.16026288       0.00000000
Si       0.11155392       2.75289597      -2.82193587       0.00000000
Si      -2.71264338       2.87134056       0.00807029       0.00000000
