10
Lattice="16.28999089631971 0.0 0.0 0.0 16.28999089631971 0.0 0.0 0.0 34.63643526849801" Properties=species:S:1:pos:R:3:initial_magmoms:R:1 pbc="T T T"
Si       1.73811042       0.91970082       1.26710919       0.00000000
Si      -0.95882940      -1.75705569       1.32750478       0.00000000
Si      -1.81016109       1.72616985      -0.22992136       0.00000000
Si      -1.33043688       0.78395625      -2.56424522       0.00000000
Si       1.35949824      -1.71201384      -2.47890100       0.00000000
Si       0.34546203       2.28460734       2.67363674       0.00000000
Si      -2.39365260      -0.44163819       2.67632452       0.00000000
Si      -2.34395181      -1.39504302      -2.53075177       0.00000000
Si       2.92853475       2.30153265      -0.28010959       0.00000000
Si      -1.38697947      -3.51802098      -0.15593790       0.00000000
