10
Lattice="16.28999089631971 0.0 0.0 0.0 16.28999089631971 0.0 0.0 0.0 34.63643526849801" Properties=species:S:1:pos:R:3:initial_magmoms:R:1 pbc="T T T"
Si      -1.34864910      -1.33996653      -1.35193702       0.00000000
Si       1.34136747       1.35092970      -1.35724333       0.00000000
Si       1.35501849      -1.35439947       1.35096028       0.00000000
Si      -1.35829278       1.35711990       1.35130664       0.00000000
Si      -2.70000234       0.01182654      -2.68286704       0.00000000
Si       2.62640412      -0.01518228      -2.78823806       0.00000000
Si       2.71308321       0.00128691       2.70905566       0.00000000
Si      -0.00218286      -2.71311905       2.70902103       0.00000000
Si      -0.00179190       2.71761183       2.70867466       0.00000000
Si      -2.71728603       0.00091224       2.70919421       0.00000000
