10
Lattice="16.28999089631971 0.0 0.0 0.0 16.28999089631971 0.0 0.0 0.0 34.63643526849801" Properties=species:S:1:pos:R:3:initial_magmoms:R:1 pbc="T T T"
Si      -1.35796698      -1.35529919       1.35698702       0.00000000
Si       1.35615879       1.35708748       1.35761048       0.00000000
Si      -1.35773892       1.35723409      -1.35677920       0.00000000
Si       1.35775521      -1.35814994      -1.35677920       0.00000000
Si      -2.71321353      -0.00266252      -2.71366231       0.00000000
Si      -0.00177561      -2.71411325      -2.71407795       0.00000000
Si       2.71470256      -0.00047323      -2.71445895       0.00000000
Si      -2.71485882      -0.00045989       2.71438968       0.00000000
Si      -2.71469592       2.71463418       0.00034636       0.00000000
Si       2.71496161       2.71440612       0.00062346       0.00000000
