10
Lattice="16.28999089631971 0.0 0.0 0.0 16.28999089631971 0.0 0.0 0.0 34.63643526849801" Properties=species:S:1:pos:R:3:initial_magmoms:R:1 pbc="T T T"
Si      -1.68950010      -1.05161724      -1.28960588       0.00000000
Si      -1.29237673       1.39476609       1.45362619       0.00000000
Si       0.82289749       1.88706618      -1.22741031       0.00000000
Si       1.42966741      -1.30140810       1.41938459       0.00000000
Si      -3.43391475       0.68165505      -1.18893822       0.00000000
Si      -2.71195824       2.63700891       0.08457183       0.00000000
Si      -2.74427760      -2.67719634       0.02396843       0.00000000
Si      -2.65425906       0.05649372       2.80687247       0.00000000
Si       0.05746135      -2.66551641       2.80462110       0.00000000
Si       2.73809650       2.77793370       0.00209897       0.00000000
