10
Lattice="16.28999089631971 0.0 0.0 0.0 16.28999089631971 0.0 0.0 0.0 34.63643526849801" Properties=species:S:1:pos:R:3:initial_magmoms:R:1 pbc="T T T"
Si      -0.02160054      -2.16203649      -0.96829673       0.00000000
Si       0.71563599       0.00470781       2.26782187       0.00000000
Si       1.86293484       1.15342974      -1.02035532       0.00000000
Si      -0.40037562      -1.27503459      -3.17058642       0.00000000
Si      -1.13855697      -1.09636587       3.18565328       0.00000000
Si      -2.75737572       2.35864539       0.15898133       0.00000000
Si      -2.04514434      -3.07055816      -0.03352809       0.00000000
Si      -2.01758166       0.56223306      -3.13439132       0.00000000
Si      -2.88350919       0.31420152       2.43296848       0.00000000
Si       1.71395791       3.38035419      -0.63689513       0.00000000
