10
Lattice="16.28999089631971 0.0 0.0 0.0 16.28999089631971 0.0 0.0 0.0 34.63643526849801" Properties=species:S:1:pos:R:3:initial_magmoms:R:1 pbc="T T T"
Si      -1.41958151       1.24224282      -1.36905436       0.00000000
Si      -1.36188233      -1.33827237       1.35324628       0.00000000
Si       1.35073891       1.37342619       1.35106419       0.00000000
Si       1.29237673      -1.39476609      -1.45362619       0.00000000
Si       2.11527422       0.49230009      -2.68103650       0.00000000
Si      -2.14153802      -0.71311104      -2.64256441       0.00000000
Si       0.23830133       2.40314967      -2.53229336       0.00000000
Si      -0.39712337      -2.44638333      -2.74323208       0.00000000
Si      -0.00731327      -2.69656515       2.71016403       0.00000000
Si       2.72204414      -2.69617419      -0.03424160       0.00000000
