10
Lattice="16.28999089631971 0.0 0.0 0.0 16.28999089631971 0.0 0.0 0.0 34.63643526849801" Properties=species:S:1:pos:R:3:initial_magmoms:R:1 pbc="T T T"
Si      -1.05477750      -1.62557910       1.31357431       0.00000000
Si       1.68950010       1.05161724       1.28960588       0.00000000
Si      -1.74441465       1.73327229       0.10066767       0.00000000
Si       0.07402176      -0.73669896      -2.58885758       0.00000000
Si      -1.95061347       0.47335482      -2.36448262       0.00000000
Si      -2.33981415      -0.25946712       2.74456904       0.00000000
Si       0.39712337       2.44638333       2.74323208       0.00000000
Si       2.51239760       2.93868342       0.06219557       0.00000000
Si       0.39292213      -2.94616053       2.71926019       0.00000000
Si      -3.62835315       1.10224656       1.38571858       0.00000000
