10
Lattice="16.28999089631971 0.0 0.0 0.0 16.28999089631971 0.0 0.0 0.0 34.63643526849801" Properties=species:S:1:pos:R:3:initial_magmoms:R:1 pbc="T T T"
Si       1.35767865       1.35571896      -1.35587865       0.00000000
Si      -1.35742878       1.35646830       1.35650211       0.00000000
Si      -1.35703406      -1.35803214      -1.35816466       0.00000000
Si       1.35774381      -1.35891180       1.35698702       0.00000000
Si       2.70792417       0.00646713      -2.71262322       0.00000000
Si      -2.71160312       0.00026064      -2.71508241       0.00000000
Si       2.71383744       2.71370223      -0.00027709       0.00000000
Si      -2.71474709      -0.00066789       2.71293494       0.00000000
Si      -2.71455161       2.71314837      -0.00024246       0.00000000
Si       0.00018896       2.71513575       2.71387013       0.00000000
