10
Lattice="16.28999089631971 0.0 0.0 0.0 16.28999089631971 0.0 0.0 0.0 34.63643526849801" Properties=species:S:1:pos:R:3:initial_magmoms:R:1 pbc="T T T"
Si      -1.35661379      -1.35814617      -1.35636356       0.00000000
Si       1.35863813       1.35713619      -1.35605184       0.00000000
Si      -1.35748221       1.35438318       1.36131658       0.00000000
Si       1.35637382      -1.35373158       1.36453777       0.00000000
Si      -2.69080242      -0.00772146       2.73118836       0.00000000
Si      -2.71404825      -0.00091224      -2.71373158       0.00000000
Si       0.00089432       2.71604799      -2.71303885       0.00000000
Si      -2.71385277       2.71538010      -0.00010391       0.00000000
Si       0.00131623      -2.71548110      -2.71404331       0.00000000
Si       2.71587206      -0.00086337      -2.71400868       0.00000000
