10
Lattice="16.28999089631971 0.0 0.0 0.0 16.28999089631971 0.0 0.0 0.0 34.63643526849801" Properties=species:S:1:pos:R:3:initial_magmoms:R:1 pbc="T T T"
Si       0.26365365       2.29433247       0.49689458       0.00000000
Si      -1.08354564      -0.03293838      -2.10031997       0.00000000
Si      -1.67879853      -0.86203422       1.44925853       0.00000000
Si       2.24888337      -0.64438353       0.51220389       0.00000000
Si      -2.09528496       2.07203913      -1.79056616       0.00000000
Si       0.37838412       2.18264823       2.86079797       0.00000000
Si      -1.30569237       0.52481493       3.37213595       0.00000000
Si       2.46607794       2.71112841      -0.16140588       0.00000000
Si       3.34299049      -0.61108677      -1.57585478       0.00000000
Si       3.30445812       1.27363365       1.47443924       0.00000000
