10
Lattice="16.28999089631971 0.0 0.0 0.0 16.28999089631971 0.0 0.0 0.0 34.63643526849801" Properties=species:S:1:pos:R:3:initial_magmoms:R:1 pbc="T T T"
Si      -1.35205371       1.35255522       1.35511665       0.00000000
Si       1.34335485       1.34695494      -1.38123600       0.00000000
Si       1.35938421      -1.35889551       1.35470101       0.00000000
Si      -1.35154872      -1.34332227      -1.39227810       0.00000000
Si       2.63702520      -0.13022226      -2.75697866       0.00000000
Si      -2.71164969      -0.00224802       2.71193049       0.00000000
Si      -2.71202436       2.71159009      -0.00831275       0.00000000
Si       0.00342090       2.71245183       2.71199976       0.00000000
Si      -2.71062342      -2.71831230      -0.00910939       0.00000000
Si       0.00360009      -2.71761183       2.71220758       0.00000000
