10
Lattice="16.28999089631971 0.0 0.0 0.0 16.28999089631971 0.0 0.0 0.0 34.63643526849801" Properties=species:S:1:pos:R:3:initial_magmoms:R:1 pbc="T T T"
Si       1.34729276       1.35772263      -1.34294886       0.00000000
Si       1.35514127      -1.35842310       1.36221712       0.00000000
Si      -1.36151820       1.35904212       1.36183612       0.00000000
Si      -1.36339155      -1.37003787      -1.36712165       0.00000000
Si      -0.08387721       2.58771537      -2.74984355       0.00000000
Si       2.71374525      -2.71627605       0.00259773       0.00000000
Si       2.71270107       0.00017919       2.71899632       0.00000000
Si       2.71334289       2.71886616       0.00339437       0.00000000
Si      -2.71984356      -2.71406061       0.00831275       0.00000000
Si      -0.00198738       2.71500543       2.71913487       0.00000000
