10
Lattice="16.28999089631971 0.0 0.0 0.0 16.28999089631971 0.0 0.0 0.0 34.63643526849801" Properties=species:S:1:pos:R:3:initial_magmoms:R:1 pbc="T T T"
Si       1.40639715       1.04804973      -1.62448436       0.00000000
Si       1.39077504      -1.28604663       1.54973889       0.00000000
Si      -1.26322434      -1.57477059      -1.50685896       0.00000000
Si      -1.05559200       2.01922695       1.14802529       0.00000000
Si       2.65953798       2.49794118      -0.17418673       0.00000000
Si       2.42106867      -2.94798501      -0.02199415       0.00000000
Si       0.05874174       2.36488446      -3.03602379       0.00000000
Si       1.01582811       3.51927531       1.32110365       0.00000000
Si      -2.65962595      -0.35023500      -3.01409892       0.00000000
Si      -2.58942093      -3.13970202      -0.26857107       0.00000000
