10
Lattice="16.28999089631971 0.0 0.0 0.0 16.28999089631971 0.0 0.0 0.0 34.63643526849801" Properties=species:S:1:pos:R:3:initial_magmoms:R:1 pbc="T T T"
Si      -1.14145496      -0.58549518      -1.88266449       0.00000000
Si      -1.76494398       0.16394256       1.51212370       0.00000000
Si       0.59266604       2.21990346      -0.75185352       0.00000000
Si       1.72623827      -1.19788515       1.23364660       0.00000000
Si      -0.56560346       1.12835943       3.27937952       0.00000000
Si       1.64923544       0.27194526       3.14440126       0.00000000
Si      -0.99247802      -2.81241963      -2.26612468       0.00000000
Si      -1.60440603       3.27539772      -0.94477857       0.00000000
Si      -2.49361197      -1.94564502       2.23190386       0.00000000
Si       3.74810420      -1.12910877      -0.04239502       0.00000000
