10
Lattice="16.28999089631971 0.0 0.0 0.0 16.28999089631971 0.0 0.0 0.0 34.63643526849801" Properties=species:S:1:pos:R:3:initial_magmoms:R:1 pbc="T T T"
Si      -0.79666245       1.32467022      -1.77747358       0.00000000
Si      -0.20201229       0.91008972       2.16862306       0.00000000
Si       2.31739911      -0.56257515      -0.17713083       0.00000000
Si      -1.39484754      -1.87413192      -0.51313908       0.00000000
Si      -2.18900948      -0.11147247       2.78134194       0.00000000
Si      -0.65474397      -2.41044759      -2.67608176       0.00000000
Si       1.53857421      -0.09749565       3.36912258       0.00000000
Si      -0.95612526      -3.37330062       1.27922818       0.00000000
Si      -0.71965962      -0.14516019      -3.68822823       0.00000000
Si       3.36934215       0.15599304       1.90434691       0.00000000
