10
Lattice="16.28999089631971 0.0 0.0 0.0 16.28999089631971 0.0 0.0 0.0 34.63643526849801" Properties=species:S:1:pos:R:3:initial_magmoms:R:1 pbc="T T T"
Si       1.35838293      -1.35381598      -1.35806075       0.00000000
Si      -1.35694735      -1.35767671       1.35767975       0.00000000
Si       1.35818907       1.35754441       1.35740266       0.00000000
Si      -1.35626317       1.35808687      -1.36090094       0.00000000
Si      -0.00766720      -2.71495951      -2.70440399       0.00000000
Si       2.70619309       0.00399072      -2.71806807       0.00000000
Si      -2.71470256       0.00047323       2.71445895       0.00000000
Si       0.00025905       2.71487934       2.71508241       0.00000000
Si       0.00056829      -2.71484548       2.71522095       0.00000000
Si      -2.71647817      -2.71364002       0.00038100       0.00000000
