10
Lattice="16.28999089631971 0.0 0.0 0.0 16.28999089631971 0.0 0.0 0.0 34.63643526849801" Properties=species:S:1:pos:R:3:initial_magmoms:R:1 pbc="T T T"
Si      -1.65788284      -1.16090685       1.16323900       0.00000000
Si      -0.47480530       0.65989161      -2.18846286       0.00000000
Si       1.07653442       1.75241304       1.12204241       0.00000000
Si       1.87697290      -1.91084958      -0.14874314       0.00000000
Si       1.88865283       0.54781641      -2.55076018       0.00000000
Si      -0.23830133      -2.40314967       2.53229336       0.00000000
Si       2.46841393       0.34336062       2.51525223       0.00000000
Si       1.51181626      -2.21936589      -2.53229895       0.00000000
Si      -0.49383202      -1.30763088      -3.50405932       0.00000000
Si      -2.96469922       0.31651470       2.51363817       0.00000000
