10
Lattice="16.28999089631971 0.0 0.0 0.0 16.28999089631971 0.0 0.0 0.0 34.63643526849801" Properties=species:S:1:pos:R:3:initial_magmoms:R:1 pbc="T T T"
Si      -1.35720135      -1.35656604      -1.36024285       0.00000000
Si       1.34765541      -1.31683473       1.41153944       0.00000000
Si       1.36159965       1.35811359      -1.36318694       0.00000000
Si      -1.31957145       1.37199267       1.41531481       0.00000000
Si       2.70497079       2.71461447       0.00245919       0.00000000
Si      -2.71143303      -0.00004887      -2.72003542       0.00000000
Si       0.00361638       2.71332756      -2.72013933       0.00000000
Si      -2.71836769      -2.71511946       0.02192488       0.00000000
Si       2.71471221      -2.71963179       0.01756068       0.00000000
Si      -2.70912148       2.72678310       0.02088578       0.00000000
