10
Lattice="16.28999089631971 0.0 0.0 0.0 16.28999089631971 0.0 0.0 0.0 34.63643526849801" Properties=species:S:1:pos:R:3:initial_magmoms:R:1 pbc="T T T"
Si      -1.35680550      -1.35824825       1.35733338       0.00000000
Si      -1.35686578       1.35739641      -1.35813002       0.00000000
Si       1.35726651      -1.35704279      -1.35830320       0.00000000
Si       1.35861858       1.35834775       1.35702166       0.00000000
Si      -2.71448656      -2.71499348      -0.00031173       0.00000000
Si      -2.71479580       2.71473134      -0.00045027       0.00000000
Si       0.00096111      -2.71533557      -2.71435504       0.00000000
Si       2.71513575      -2.71512380      -0.00048491       0.00000000
Si      -2.71505485      -0.00014800      -2.71553268       0.00000000
Si       2.71541268       2.71539923      -0.00020782       0.00000000
