10
Lattice="16.28999089631971 0.0 0.0 0.0 16.28999089631971 0.0 0.0 0.0 34.63643526849801" Properties=species:S:1:pos:R:3:initial_magmoms:R:1 pbc="T T T"
Si      -1.74705363      -0.91553058       1.27302825       0.00000000
Si       1.31957145      -1.37199267      -1.41531481       0.00000000
Si      -1.38955003       1.35479043      -1.39442903       0.00000000
Si       1.23080724       1.46549727       1.54797243       0.00000000
Si       0.20523771      -1.71765018       2.76873427       0.00000000
Si      -0.87102630       2.18232243       2.54796151       0.00000000
Si       2.27665782      -0.21760182       2.94181264       0.00000000
Si       2.66722686      -2.68882740      -0.00377537       0.00000000
Si       2.68726356       2.71256193       0.01409704       0.00000000
Si       2.68117110      -0.01387908      -2.77850175       0.00000000
