10
Lattice="16.28999089631971 0.0 0.0 0.0 16.28999089631971 0.0 0.0 0.0 34.63643526849801" Properties=species:S:1:pos:R:3:initial_magmoms:R:1 pbc="T T T"
Si      -0.59266604      -2.21990346       0.75185352       0.00000000
Si       1.80900450       0.88718598       1.38324145       0.00000000
Si      -2.19707207       1.05549426      -0.19292505       0.00000000
Si       1.02749175      -0.07710057      -2.24430371       0.00000000
Si      -1.73412100      -2.80539864      -1.13081097       0.00000000
Si       0.60540156       2.35502901       2.76104498       0.00000000
Si      -2.35761002      -2.05596090       2.26397722       0.00000000
Si      -1.28693606       1.20902751       3.48151787       0.00000000
Si      -0.92479959       0.72501903      -3.74000973       0.00000000
Si      -3.03465500       1.44401076       2.02477786       0.00000000
