10
Lattice="16.28999089631971 0.0 0.0 0.0 16.28999089631971 0.0 0.0 0.0 34.63643526849801" Properties=species:S:1:pos:R:3:initial_magmoms:R:1 pbc="T T T"
Si       1.35686578      -1.35739641       1.35813002       0.00000000
Si      -1.35793002       1.35733493       1.35767975       0.00000000
Si      -1.35818907      -1.35754441      -1.35740266       0.00000000
Si       1.35748480       1.35902909      -1.35698702       0.00000000
Si      -0.00030462       2.70977960      -2.71632932       0.00000000
Si       0.00019385      -2.71136040      -2.71546341       0.00000000
Si       2.70896836       0.00226594      -2.71816505       0.00000000
Si       2.71413229      -2.71443921      -0.00017318       0.00000000
Si       2.71455583       2.71461773       0.00003464       0.00000000
Si      -0.00131623       2.71548110       2.71404331       0.00000000
