10
Lattice="16.28999089631971 0.0 0.0 0.0 16.28999089631971 0.0 0.0 0.0 34.63643526849801" Properties=species:S:1:pos:R:3:initial_magmoms:R:1 pbc="T T T"
Si       1.35827486       1.35731538      -1.35636356       0.00000000
Si      -1.35717281       1.35765747       1.35767975       0.00000000
Si       1.35763955      -1.35744570       1.35743729       0.00000000
Si      -1.35755980      -1.35860229      -1.35677920       0.00000000
Si       0.00021503      -2.71327869       2.71473604       0.00000000
Si       2.71386350      -2.71471221       0.00058882       0.00000000
Si      -2.71441152      -0.00130320       2.71508241       0.00000000
Si      -2.71468845       2.71482624       0.00013855       0.00000000
Si       0.00050825       2.71440270       2.71532486       0.00000000
Si      -2.71452555      -2.71526607       0.00062346       0.00000000
