10
Lattice="16.28999089631971 0.0 0.0 0.0 16.28999089631971 0.0 0.0 0.0 34.63643526849801" Properties=species:S:1:pos:R:3:initial_magmoms:R:1 pbc="T T T"
Si       1.35401991      -1.35773892       1.35913448       0.00000000
Si      -1.35768105      -1.35674523      -1.35764511       0.00000000
Si       1.35680550       1.35824825      -1.35733338       0.00000000
Si      -1.35682960       1.36066944       1.36114339       0.00000000
Si       2.71475619      -2.71430496      -0.00069273       0.00000000
Si       2.71407201       0.00120546      -2.71563659       0.00000000
Si      -0.00050825      -2.71440270      -2.71532486       0.00000000
Si      -2.71519669       0.00042354      -2.71518631       0.00000000
Si      -2.71491976      -2.71570590      -0.00024246       0.00000000
Si      -0.00006027       2.71564467      -2.71546341       0.00000000
