10
Lattice="16.28999089631971 0.0 0.0 0.0 16.28999089631971 0.0 0.0 0.0 34.46413024517268" Properties=species:S:1:pos:R:3:initial_magmoms:R:1 pbc="T T T"
Si      -1.60891836      -1.15380441      -1.35943838       0.00000000
Si       1.11594971       1.64737512      -1.39207593       0.00000000
Si      -0.98342567       1.70701281       1.48502574       0.00000000
Si       1.90335944      -1.74643461       0.32823656       0.00000000
Si       1.25822657       2.42699823       1.94791373       0.00000000
Si      -0.17960865      -2.38878026      -2.73814221       0.00000000
Si       2.54169938       0.34119405      -2.72287460       0.00000000
Si       2.22749786      -1.18262142       2.82302741       0.00000000
Si       1.08178958      -3.56836034      -1.08696481       0.00000000
Si      -2.72372451      -2.89755280       0.01940332       0.00000000
