10
Lattice="16.28999089631971 0.0 0.0 0.0 16.28999089631971 0.0 0.0 0.0 34.46413024517268" Properties=species:S:1:pos:R:3:initial_magmoms:R:1 pbc="T T T"
Si       1.35062019       1.46703735      -1.16285487       0.00000000
Si       0.24835734       0.00302994       2.31712816       0.00000000
Si       0.27582228      -2.24670051      -0.69228137       0.00000000
Si      -2.31439265       0.36097990      -0.82669155       0.00000000
Si      -0.20235438       3.22555751      -0.88738292       0.00000000
Si      -1.50048656      -3.19567446       0.46788529       0.00000000
Si      -1.85783378      -0.38437884       3.06344932       0.00000000
Si      -0.72950041      -2.42188317       2.69464846       0.00000000
Si      -3.22423802      -1.77503985      -0.35177557       0.00000000
Si       1.16626626       0.96608727      -3.48591087       0.00000000
