10
Lattice="16.28999089631971 0.0 0.0 0.0 16.28999089631971 0.0 0.0 0.0 34.46413024517268" Properties=species:S:1:pos:R:3:initial_magmoms:R:1 pbc="T T T"
Si      -0.37357531       1.98633744      -1.14131478       0.00000000
Si       2.07800127      -0.35938998      -0.98770806       0.00000000
Si       0.61843356       0.06454098       2.33125846       0.00000000
Si      -1.99331675      -1.31391882      -0.41887727       0.00000000
Si       1.22412834      -1.76958270      -2.61396788       0.00000000
Si       2.69643483      -2.03326893       0.55487281       0.00000000
Si      -2.33920232       2.72271127      -0.18193625       0.00000000
Si       1.50887754       3.27732876      -0.46237103       0.00000000
Si       0.78294627      -3.53665674       0.48935646       0.00000000
Si      -1.51827361      -3.26028060       0.89630914       0.00000000
