10
Lattice="16.28999089631971 0.0 0.0 0.0 16.28999089631971 0.0 0.0 0.0 34.46413024517268" Properties=species:S:1:pos:R:3:initial_magmoms:R:1 pbc="T T T"
Si      -1.77630884      -0.94897395       1.16016666       0.00000000
Si      -0.27582228       2.24670051       0.69228137       0.00000000
Si       2.01433995      -1.24517502       0.40922731       0.00000000
Si      -0.61843356      -0.06454098      -2.33125846       0.00000000
Si       2.07800127      -2.09780991      -1.77638566       0.00000000
Si      -1.00532269      -0.17518266       3.38692983       0.00000000
Si      -3.50006030       0.47166066       0.34050580       0.00000000
Si       1.45956771      -0.42393096      -3.31896653       0.00000000
Si      -2.59021493       2.60768041      -0.13441018       0.00000000
Si      -0.02746494       2.24973045       3.00940953       0.00000000
