10
Lattice="16.28999089631971 0.0 0.0 0.0 16.28999089631971 0.0 0.0 0.0 34.46413024517268" Properties=species:S:1:pos:R:3:initial_magmoms:R:1 pbc="T T T"
Si       2.10619111       0.38740878      -0.74632116       0.00000000
Si      -2.03924640       0.78340290      -0.65640419       0.00000000
Si      -0.93887319       1.03717031       1.86905463       0.00000000
Si       1.12833337      -2.03750433      -0.36880086       0.00000000
Si       1.85783378       0.38437884      -3.06344932       0.00000000
Si      -1.82255682      -0.81290358       3.11260351       0.00000000
Si      -3.07700085      -0.93457359      -1.88291434       0.00000000
Si      -1.66456011       2.31670583      -2.45326155       0.00000000
Si       0.96516784       1.92860472       3.16745665       0.00000000
Si       0.35734721      -2.81129562      -2.59556403       0.00000000
