10
Lattice="16.28999089631971 0.0 0.0 0.0 16.28999089631971 0.0 0.0 0.0 34.46413024517268" Properties=species:S:1:pos:R:3:initial_magmoms:R:1 pbc="T T T"
Si      -1.21228551       1.77132573       0.81300929       0.00000000
Si       1.20580209      -0.41663304       2.02938698       0.00000000
Si       1.06749999       0.12386916      -2.16448645       0.00000000
Si      -2.21982201      -0.95094504      -0.49793803       0.00000000
Si      -2.76923484       0.44818677      -2.31861012       0.00000000
Si      -2.77483860       2.30438340      -0.88038670       0.00000000
Si       2.16878544      -2.03072769      -2.27494404       0.00000000
Si      -2.29008078       1.03865040       2.78239418       0.00000000
Si      -0.81845847       0.31253994      -3.66154017       0.00000000
Si      -2.23493913      -3.14724266       0.28629369       0.00000000
