10
Lattice="16.28999089631971 0.0 0.0 0.0 16.28999089631971 0.0 0.0 0.0 34.46413024517268" Properties=species:S:1:pos:R:3:initial_magmoms:R:1 pbc="T T T"
Si      -1.20580209       0.41663304      -2.02938698       0.00000000
Si       2.28633408      -0.77488272       0.00199892       0.00000000
Si       0.17796825       1.81286523       1.61705789       0.00000000
Si      -1.20484098      -1.46697966       1.55867563       0.00000000
Si       2.24384976      -1.36075257       2.24540827       0.00000000
Si      -2.41808760       2.18795877      -1.21637769       0.00000000
Si       1.70476479       0.78797988       3.11959142       0.00000000
Si      -2.01157065       1.79357787       2.50926580       0.00000000
Si       0.48842307      -2.97203394       2.26856818       0.00000000
Si      -3.49588287       1.45528344       0.75300720       0.00000000
