10
Lattice="16.28999089631971 0.0 0.0 0.0 16.28999089631971 0.0 0.0 0.0 34.46413024517268" Properties=species:S:1:pos:R:3:initial_magmoms:R:1 pbc="T T T"
Si      -1.63971882       1.26253495      -1.20596952       0.00000000
Si       1.35298224       1.22923493       1.56585593       0.00000000
Si       1.71624924      -0.58700300      -1.70849128       0.00000000
Si      -1.44361980      -1.47528041       1.43395818       0.00000000
Si       2.93755941       2.24819724       0.09022714       0.00000000
Si      -0.38490012       2.84853261      -2.54386780       0.00000000
Si      -3.09602853      -0.35403971      -2.25984875       0.00000000
Si      -2.87770995       2.56103040       0.29453062       0.00000000
Si       1.46644209      -2.91303581      -2.15004597       0.00000000
Si      -0.04994514       2.58525363       3.01099630       0.00000000
