10
Lattice="16.28999089631971 0.0 0.0 0.0 16.28999089631971 0.0 0.0 0.0 34.46413024517268" Properties=species:S:1:pos:R:3:initial_magmoms:R:1 pbc="T T T"
Si       1.35728280       1.35695700      -1.35702589       0.00000000
Si      -1.35891180      -1.35865116      -1.35664678       0.00000000
Si       1.35627282      -1.36011726       1.35909374       0.00000000
Si      -1.35985662       1.35558864       1.36222997       0.00000000
Si       2.71383255      -0.00058644      -2.71415517       0.00000000
Si       2.71314837       2.71524978      -0.00062035       0.00000000
Si       2.71256193      -2.71586880       0.00034464       0.00000000
Si      -0.00171045       2.71482624      -2.71408624       0.00000000
Si      -0.00105885      -2.71603170      -2.71405177       0.00000000
Si      -2.71634936      -2.71404432       0.00017232       0.00000000
