10
Lattice="16.28999089631971 0.0 0.0 0.0 16.28999089631971 0.0 0.0 0.0 34.46413024517268" Properties=species:S:1:pos:R:3:initial_magmoms:R:1 pbc="T T T"
Si      -2.12594274       0.92932821      -0.14723085       0.00000000
Si       1.61067375       1.75759326      -0.17842090       0.00000000
Si       0.00242721      -1.59889608       1.83111473       0.00000000
Si      -0.23258862      -0.93879270      -2.29524343       0.00000000
Si      -3.37353031      -1.16330148      -0.02688204       0.00000000
Si       1.76845869      -0.08226450      -3.23270276       0.00000000
Si       3.32579898       0.76339827      -1.50001764       0.00000000
Si       2.41460154       2.06286786       1.98103378       0.00000000
Si      -2.20955931       2.29081383      -2.12361196       0.00000000
Si      -2.53364886       2.59501329       1.41482227       0.00000000
