10
Lattice="16.28999089631971 0.0 0.0 0.0 16.28999089631971 0.0 0.0 0.0 34.46413024517268" Properties=species:S:1:pos:R:3:initial_magmoms:R:1 pbc="T T T"
Si      -1.71512523       0.99419499       1.32159674       0.00000000
Si       0.97523343      -1.39857795       1.73323654       0.00000000
Si       1.79494623       1.03562046      -1.29261239       0.00000000
Si      -1.55734029      -0.84566277      -1.73268512       0.00000000
Si      -3.32579898      -0.76339827       1.50001764       0.00000000
Si       0.73682928      -3.63749184       0.88090366       0.00000000
Si      -0.91119744       1.29946959       3.48105142       0.00000000
Si       3.76409772      -0.20872377      -0.71233951       0.00000000
Si      -2.47347360       1.18021050      -2.70181700       0.00000000
Si       3.36735477      -0.96655086       1.64790331       0.00000000
