10
Lattice="16.28999089631971 0.0 0.0 0.0 16.28999089631971 0.0 0.0 0.0 34.46413024517268" Properties=species:S:1:pos:R:3:initial_magmoms:R:1 pbc="T T T"
Si       2.20897287      -0.70336962      -0.05131712       0.00000000
Si      -0.75267945       2.15430363       0.60222655       0.00000000
Si      -1.09022454      -1.48882455       1.47740916       0.00000000
Si      -0.84326814      -0.23991912      -2.20680842       0.00000000
Si       1.53305190      -2.83310793      -0.93835540       0.00000000
Si      -0.53838450      -3.40413759       0.10704565       0.00000000
Si      -3.06996453       1.54118061       0.33444011       0.00000000
Si       3.14654382       1.32840063      -0.99511785       0.00000000
Si      -3.00630321       0.68854572      -1.85117286       0.00000000
Si      -3.18311487      -0.34191081       1.83948952       0.00000000
