10
Lattice="16.28999089631971 0.0 0.0 0.0 16.28999089631971 0.0 0.0 0.0 34.46413024517268" Properties=species:S:1:pos:R:3:initial_magmoms:R:1 pbc="T T T"
Si       1.35723393       1.35659862       1.35733606       0.00000000
Si      -1.35697329      -1.35715411       1.35726714       0.00000000
Si      -1.35723393       1.35702216      -1.35771517       0.00000000
Si       1.35713619      -1.35779594      -1.35764624       0.00000000
Si       2.71482624      -0.00107514      -2.71398285       0.00000000
Si       0.00164529       2.71207323       2.71711908       0.00000000
Si       2.71502172       2.71454931      -0.00013786       0.00000000
Si       2.71494027      -2.71508866      -0.00010339       0.00000000
Si      -2.71518462       2.71515204       0.00037911       0.00000000
Si      -2.71528236      -2.71514643      -0.00006893       0.00000000
