10
Lattice="16.28999089631971 0.0 0.0 0.0 16.28999089631971 0.0 0.0 0.0 34.46413024517268" Properties=species:S:1:pos:R:3:initial_magmoms:R:1 pbc="T T T"
Si       0.52059582      -0.23258862      -2.27873510       0.00000000
Si      -1.66498461       1.69223126       0.09394927       0.00000000
Si       1.26441351       0.86168561       1.84493485       0.00000000
Si       0.55749267       2.71584599      -0.02329777       0.00000000
Si      -1.18245852      -2.25609725       1.59393245       0.00000000
Si      -0.66484377       2.10505244       2.52012200       0.00000000
Si       2.95134075       2.14766708      -0.13378983       0.00000000
Si       2.37359961      -1.92405818      -2.19581436       0.00000000
Si      -3.70204911       0.43716170       0.80198076       0.00000000
Si       0.75914658      -3.61409681       1.16898949       0.00000000
