10
Lattice="16.28999089631971 0.0 0.0 0.0 16.28999089631971 0.0 0.0 0.0 34.46413024517268" Properties=species:S:1:pos:R:3:initial_magmoms:R:1 pbc="T T T"
Si      -1.31460300       1.38463371      -1.40841193       0.00000000
Si      -1.58457717      -1.01896231       1.47562878       0.00000000
Si       1.11910671       1.60513515       1.40584577       0.00000000
Si       1.22280885      -1.73221507      -1.35044323       0.00000000
Si      -1.22131017      -2.83520024      -1.79871843       0.00000000
Si      -2.93755941      -2.24819724      -0.09022714       0.00000000
Si      -0.29222631      -2.37680916       2.91932856       0.00000000
Si       0.02982699       1.87940988      -3.29043021       0.00000000
Si       2.42224155       0.33689349       2.91922861       0.00000000
Si       3.02524848       2.49308676       0.20757757       0.00000000
