10
Lattice="16.28999089631971 0.0 0.0 0.0 16.28999089631971 0.0 0.0 0.0 34.46413024517268" Properties=species:S:1:pos:R:3:initial_magmoms:R:1 pbc="T T T"
Si       1.35822762       1.34488611      -1.38983576       0.00000000
Si      -1.36078515      -1.36332639      -1.38673398       0.00000000
Si       1.34690607      -1.51640352       1.33396937       0.00000000
Si      -1.26112293       1.51635465       1.55026637       0.00000000
Si      -2.71042794       2.69469180      -0.00727194       0.00000000
Si       2.70391194       2.70715365      -0.01382012       0.00000000
Si       2.80934082      -0.24021234       2.61183111       0.00000000
Si      -2.72823291      -2.71955523       0.00716854       0.00000000
Si      -0.00159642       2.70514998      -2.74892949       0.00000000
Si       2.71381626      -0.01058850      -2.74961878       0.00000000
