10
Lattice="16.28999089631971 0.0 0.0 0.0 16.28999089631971 0.0 0.0 0.0 34.46413024517268" Properties=species:S:1:pos:R:3:initial_magmoms:R:1 pbc="T T T"
Si       0.86451030       1.81170864       1.34454986       0.00000000
Si      -1.44930501       1.17833715      -1.55753831       0.00000000
Si      -1.24975251      -1.50407199       1.55884795       0.00000000
Si       1.26112293      -1.51635465      -1.55026637       0.00000000
Si       2.55334347       2.57070861      -0.15829384       0.00000000
Si      -1.74154761       0.10604790       3.27940168       0.00000000
Si      -2.76526008       2.54099565      -0.14716192       0.00000000
Si      -0.09757710       2.54982483      -2.94154962       0.00000000
Si      -0.85393809       3.52479762       1.46234833       0.00000000
Si       2.61935055      -0.17146854      -2.94010213       0.00000000
