10
Lattice="16.28999089631971 0.0 0.0 0.0 16.28999089631971 0.0 0.0 0.0 34.46413024517268" Properties=species:S:1:pos:R:3:initial_magmoms:R:1 pbc="T T T"
Si       1.31033502      -1.96405272       0.02760578       0.00000000
Si       0.83243529       1.94276169       1.07348933       0.00000000
Si      -2.39212134      -0.43202709       0.08533323       0.00000000
Si       0.39674295       0.75782709      -2.36024281       0.00000000
Si       2.75550237      -1.64186910      -1.83714595       0.00000000
Si      -0.52981596       3.70512792       0.36028822       0.00000000
Si      -2.63052549      -2.67094098      -0.76699965       0.00000000
Si      -3.36735477       0.96655086      -1.64790331       0.00000000
Si       0.47830698       1.83896181       3.39068642       0.00000000
Si      -1.57240854       2.00217132      -2.94051570       0.00000000
