10
Lattice="16.28999089631971 0.0 0.0 0.0 16.28999089631971 0.0 0.0 0.0 34.46413024517268" Properties=species:S:1:pos:R:3:initial_magmoms:R:1 pbc="T T T"
Si       1.96915149      -1.24434423       0.58027289       0.00000000
Si       1.04526414       1.97754084       0.88235116       0.00000000
Si      -1.79494623      -1.03562046       1.29261239       0.00000000
Si      -0.74622861      -0.17562249      -2.37492454       0.00000000
Si      -2.46467700       1.53746649      -2.25712608       0.00000000
Si       3.12750081       2.21855139      -0.25227757       0.00000000
Si       1.04259258       1.70295660       3.30080392       0.00000000
Si      -0.08024454       3.84704640      -0.30959146       0.00000000
Si      -3.35228652      -1.88128323      -0.44007273       0.00000000
Si      -2.27214549       3.10765959      -0.41191551       0.00000000
