10
Lattice="16.28999089631971 0.0 0.0 0.0 16.28999089631971 0.0 0.0 0.0 34.46413024517268" Properties=species:S:1:pos:R:3:initial_magmoms:R:1 pbc="T T T"
Si      -1.35682668       1.35689184      -1.35688803       0.00000000
Si       1.35809730      -1.35786924      -1.35733606       0.00000000
Si       1.35830907       1.35785295       1.35743946       0.00000000
Si      -1.35782037      -1.35798327       1.35819767       0.00000000
Si      -2.71441899       2.71383255      -0.00027571       0.00000000
Si      -0.00074934      -2.71433754      -2.71439642       0.00000000
Si      -0.00167787       2.71507059      -2.71401731       0.00000000
Si      -2.71479366      -0.00107514      -2.71432749       0.00000000
Si      -0.00105885       2.71319724       2.71615409       0.00000000
Si       2.71510317       2.71443528      -0.00013786       0.00000000
