10
Lattice="16.28999089631971 0.0 0.0 0.0 16.28999089631971 0.0 0.0 0.0 34.46413024517268" Properties=species:S:1:pos:R:3:initial_magmoms:R:1 pbc="T T T"
Si       1.35519768       1.35726651       1.35761178       0.00000000
Si      -1.35839052      -1.35580041       1.35657785       0.00000000
Si       1.35759231      -1.35694071      -1.35661232       0.00000000
Si      -1.35812988       1.35858600      -1.35661232       0.00000000
Si      -2.71023246      -0.00610875       2.71491338       0.00000000
Si       2.71274112       0.00123804      -2.71374160       0.00000000
Si      -0.00050499      -2.71078632       2.71611962       0.00000000
Si      -0.00087966       2.71373481      -2.71443088       0.00000000
Si       2.71441899      -2.71383255       0.00027571       0.00000000
Si      -2.71425609      -2.71409319       0.00017232       0.00000000
