10
Lattice="16.28999089631971 0.0 0.0 0.0 16.28999089631971 0.0 0.0 0.0 34.46413024517268" Properties=species:S:1:pos:R:3:initial_magmoms:R:1 pbc="T T T"
Si      -2.19190095      -0.73938681      -0.10232406       0.00000000
Si       0.41259312       0.06704964      -2.30751267       0.00000000
Si       0.44611794       2.05068294       1.13197499       0.00000000
Si       1.12550868      -1.86950556       1.19194261       0.00000000
Si      -2.53830780      -0.29854683       2.25933178       0.00000000
Si       2.45087937       2.36537316      -0.30776486       0.00000000
Si       3.20774535      -1.62849501       0.05731388       0.00000000
Si       2.25722385      -1.61593542      -2.35414266       0.00000000
Si      -2.38443246      -2.30957991      -1.94753462       0.00000000
Si       0.08024454      -3.84704640       0.30959146       0.00000000
