10
Lattice="16.28999089631971 0.0 0.0 0.0 16.28999089631971 0.0 0.0 0.0 34.46413024517268" Properties=species:S:1:pos:R:3:initial_magmoms:R:1 pbc="T T T"
Si      -1.62127854       0.15024267       1.63904602       0.00000000
Si       1.32893820       1.91912490       0.00148196       0.00000000
Si       0.78387480      -2.00241567       0.94934946       0.00000000
Si      -1.26480447       0.32930235      -1.97538166       0.00000000
Si      -0.44821935       3.34425948       0.65123457       0.00000000
Si       0.73995696       0.64399257      -3.41512150       0.00000000
Si      -2.63425590       2.29039029       0.70024259       0.00000000
Si      -0.23328909       0.23048721       3.63469260       0.00000000
Si       2.15275608       2.00424015      -2.17975406       0.00000000
Si      -3.10694283      -1.70134389       1.21937607       0.00000000
