10
Lattice="16.28999089631971 0.0 0.0 0.0 16.28999089631971 0.0 0.0 0.0 34.46413024517268" Properties=species:S:1:pos:R:3:initial_magmoms:R:1 pbc="T T T"
Si       1.26480447      -0.32930235       1.97538166       0.00000000
Si      -0.44611794      -2.05068294      -1.13197499       0.00000000
Si      -1.94160510       1.35799956       0.42494296       0.00000000
Si       2.00476143       0.31469022      -1.43973985       0.00000000
Si      -1.36945143       1.96108794       2.67562425       0.00000000
Si       2.59374267       1.58982255       1.97686362       0.00000000
Si      -0.35647407      -0.17905968       3.61442768       0.00000000
Si      -3.74215509      -0.25308144       0.35980572       0.00000000
Si       3.41756055       1.67493780      -0.20437241       0.00000000
Si      -0.75914658       3.61409681      -1.16898949       0.00000000
