10
Lattice="16.28999089631971 0.0 0.0 0.0 16.28999089631971 0.0 0.0 0.0 34.46413024517268" Properties=species:S:1:pos:R:3:initial_magmoms:R:1 pbc="T T T"
Si      -1.35769005      -1.35672079       1.35633660       0.00000000
Si       1.35769005       1.35873261       1.35616428       0.00000000
Si       1.35679410      -1.35564240      -1.36133391       0.00000000
Si      -1.35668007       1.35544203      -1.36378086       0.00000000
Si       0.00011403      -2.71401352       2.71387945       0.00000000
Si       2.71533272      -2.71284434      -0.00051696       0.00000000
Si       0.00345348      -2.71578673      -2.71266976       0.00000000
Si      -2.71482624       0.00107514       2.71398285       0.00000000
Si       2.71527632       0.00096111       2.71398285       0.00000000
Si       0.00019548       2.71562445       2.71384499       0.00000000
