10
Lattice="16.28999089631971 0.0 0.0 0.0 16.28999089631971 0.0 0.0 0.0 34.46413024517268" Properties=species:S:1:pos:R:3:initial_magmoms:R:1 pbc="T T T"
Si      -1.33708320      -1.37131338       1.34868556       0.00000000
Si       1.35715248      -1.35620440      -1.35895588       0.00000000
Si      -1.35785295       1.35707103      -1.35864570       0.00000000
Si       1.35775521       1.35591444       1.37201779       0.00000000
Si       2.65370616      -0.13434363       2.73417884       0.00000000
Si      -2.71344159       2.71254564       0.00113732       0.00000000
Si      -2.71316466      -2.71538613       0.00237803       0.00000000
Si      -0.00014661      -2.71461625      -2.71608516       0.00000000
Si       2.71697991       2.71381626      -0.00217124       0.00000000
Si       2.71501568       0.00035838      -2.71598177       0.00000000
