10
Lattice="16.28999089631971 0.0 0.0 0.0 16.28999089631971 0.0 0.0 0.0 34.46413024517268" Properties=species:S:1:pos:R:3:initial_magmoms:R:1 pbc="T T T"
Si      -1.46243475      -1.27619118      -1.27786174       0.00000000
Si       0.09834273      -0.88659954       2.17751389       0.00000000
Si       1.30401450       1.62127854      -1.19980044       0.00000000
Si      -2.29550535      -0.31842063       2.28800596       0.00000000
Si      -0.07475481      -2.49876057      -2.65411862       0.00000000
Si       2.62008360       0.22846725      -2.63078639       0.00000000
Si      -2.80934082       0.24021234      -2.61183111       0.00000000
Si       1.45253043      -2.93077463       2.11182523       0.00000000
Si      -0.10542888       2.94736599      -2.62565123       0.00000000
Si      -2.33240220      -3.26685524       0.03256862       0.00000000
