10
Lattice="16.28999089631971 0.0 0.0 0.0 16.28999089631971 0.0 0.0 0.0 34.46413024517268" Properties=species:S:1:pos:R:3:initial_magmoms:R:1 pbc="T T T"
Si      -0.09834273       0.88659954      -2.17751389       0.00000000
Si       1.35418770      -2.04417509      -0.06568867       0.00000000
Si      -2.39384808       0.56817891       0.11049206       0.00000000
Si       1.76984334       0.98645724       1.58376553       0.00000000
Si      -1.68692724      -1.28598147       1.97872468       0.00000000
Si       2.97605268      -0.90173295       1.08255340       0.00000000
Si       0.32467599       0.66427362       3.44851726       0.00000000
Si      -0.58891608       3.38615343       1.06066867       0.00000000
Si      -2.95134075      -2.14766708       0.13378983       0.00000000
Si      -1.56077748      -0.38959164      -3.45537563       0.00000000
