10
Lattice="16.28999089631971 0.0 0.0 0.0 16.28999089631971 0.0 0.0 0.0 34.46413024517268" Properties=species:S:1:pos:R:3:initial_magmoms:R:1 pbc="T T T"
Si       1.40019066      -1.55012938      -1.10174993       0.00000000
Si      -2.29415328       0.37963356      -0.65888561       0.00000000
Si      -0.39340350      -0.98317222       2.24899254       0.00000000
Si       1.20963024       2.05477336      -0.71799163       0.00000000
Si       3.47332122      -0.40631007      -0.75996896       0.00000000
Si       0.52331625       3.39729742       1.05181138       0.00000000
Si       0.52530363      -1.62617110      -3.30917871       0.00000000
Si      -2.32855776       1.46386990      -2.75799356       0.00000000
Si      -1.19856933       0.73930047       3.65309646       0.00000000
Si      -3.24151452       2.10403432       0.70468846       0.00000000
