10
Lattice="16.28999089631971 0.0 0.0 0.0 16.28999089631971 0.0 0.0 0.0 34.46413024517268" Properties=species:S:1:pos:R:3:initial_magmoms:R:1 pbc="T T T"
Si      -1.35558864       1.35547461       1.35978302       0.00000000
Si      -1.35723393      -1.35659862      -1.35733606       0.00000000
Si       1.35778779       1.35795069      -1.35747392       0.00000000
Si       1.35785295      -1.35707103       1.35864570       0.00000000
Si      -2.71420722      -2.71375273      -0.00006893       0.00000000
Si       2.71500543      -2.71327543      -0.00031018       0.00000000
Si       2.71489140       2.71415835      -0.00027571       0.00000000
Si      -0.00009774      -2.71439455      -2.71498231       0.00000000
Si      -2.71446786       0.00042354      -2.71505123       0.00000000
Si       2.71528236       0.00105885      -2.71515463       0.00000000
