10
Lattice="16.28999089631971 0.0 0.0 0.0 16.28999089631971 0.0 0.0 0.0 34.46413024517268" Properties=species:S:1:pos:R:3:initial_magmoms:R:1 pbc="T T T"
Si      -1.31791964       1.39139406      -1.35023645       0.00000000
Si       1.42574967      -1.30618107      -1.33079867       0.00000000
Si       0.80399295       1.86496065       1.31480730       0.00000000
Si      -1.11594971      -1.64737512       1.39207593       0.00000000
Si       0.14227686       0.77962311       3.33998966       0.00000000
Si      -2.09937538       0.05963769       2.87710166       0.00000000
Si       2.70699075      -2.58209532       0.28474280       0.00000000
Si      -2.62983838       2.71365336       0.07664827       0.00000000
Si      -2.66159432       0.04698036      -2.70371253       0.00000000
Si       0.05054787      -2.66768298      -2.70233396       0.00000000
