10
Lattice="16.28999089631971 0.0 0.0 0.0 16.28999089631971 0.0 0.0 0.0 34.46413024517268" Properties=species:S:1:pos:R:3:initial_magmoms:R:1 pbc="T T T"
Si       1.37577195       1.33737642       1.35444108       0.00000000
Si      -1.35694071       1.35874890      -1.36071355       0.00000000
Si       1.35723393      -1.35866745      -1.36092034       0.00000000
Si      -1.36756179      -1.35508365       1.37515403       0.00000000
Si       0.05862771       2.71832859       2.65018970       0.00000000
Si       2.71558175       2.71264338       0.00189553       0.00000000
Si      -2.71630863       2.71409319      -0.00199892       0.00000000
Si      -2.71324611      -2.71735119      -0.00086160       0.00000000
Si       2.71509471       0.00034209      -2.71770497       0.00000000
Si       0.00013032      -2.71487511      -2.71811854       0.00000000
