10
Lattice="16.28999089631971 0.0 0.0 0.0 16.28999089631971 0.0 0.0 0.0 34.46413024517268" Properties=species:S:1:pos:R:3:initial_magmoms:R:1 pbc="T T T"
Si       0.96205482      -0.73305000      -1.97824218       0.00000000
Si       1.80048483      -0.10150299       1.48412967       0.00000000
Si      -2.17595304      -0.79438185       0.55115068       0.00000000
Si      -0.45250362       2.07350523      -1.11560452       0.00000000
Si       0.86038893      -2.26483128       1.56880809       0.00000000
Si      -2.16624420       2.83103910       0.28426031       0.00000000
Si      -3.53820429       0.96798438      -0.16205043       0.00000000
Si      -0.63951282      -0.75784338      -3.69817556       0.00000000
Si       2.45170920       1.03961151      -2.77429511       0.00000000
Si       1.65415176       1.34242632       3.28801772       0.00000000
