10
Lattice="16.28999089631971 0.0 0.0 0.0 16.28999089631971 0.0 0.0 0.0 34.46413024517268" Properties=species:S:1:pos:R:3:initial_magmoms:R:1 pbc="T T T"
Si       0.14633307      -1.44392931      -1.80388805       0.00000000
Si      -1.01538828       2.08505484      -0.25886023       0.00000000
Si      -0.89252910      -0.72075105       2.04169068       0.00000000
Si       2.31419717       0.28328310       0.49438822       0.00000000
Si       0.49309245       0.81728559       3.17938672       0.00000000
Si       0.01804932       2.76364737       1.86420031       0.00000000
Si       2.40064820      -1.28140398      -2.54341977       0.00000000
Si       3.44446253      -1.53285642      -0.48777111       0.00000000
Si      -1.02972348      -3.06646218       2.00732992       0.00000000
Si      -3.38960691       1.80180432      -0.63924105       0.00000000
