10
Lattice="16.28999089631971 0.0 0.0 0.0 16.28999089631971 0.0 0.0 0.0 34.46413024517268" Properties=species:S:1:pos:R:3:initial_magmoms:R:1 pbc="T T T"
Si      -0.40770612       1.66568508       1.56205311       0.00000000
Si       2.12594274      -0.92932821       0.14723085       0.00000000
Si      -0.08361657       1.36148562      -1.97638112       0.00000000
Si      -1.24758757      -2.09262969       0.12034881       0.00000000
Si       0.19960137      -0.55519578      -3.26458210       0.00000000
Si       1.89335412      -1.86812091      -2.14801258       0.00000000
Si      -2.83823018      -1.35127179      -1.42919382       0.00000000
Si       1.13078664       3.47960916       0.98539896       0.00000000
Si      -3.50045126       0.87161274      -1.16078702       0.00000000
Si      -2.66202125       1.50315975       2.30158483       0.00000000
