10
Lattice="16.28999089631971 0.0 0.0 0.0 16.28999089631971 0.0 0.0 0.0 34.46413024517268" Properties=species:S:1:pos:R:3:initial_magmoms:R:1 pbc="T T T"
Si       1.41279912       1.36024758       1.23536744       0.00000000
Si      -0.39030840       1.37534841      -1.92506400       0.00000000
Si      -2.00476143      -0.31469022       1.43973985       0.00000000
Si       1.85056029      -1.72054980      -0.01943778       0.00000000
Si      -2.45087937      -2.36537316       0.30776486       0.00000000
Si       3.26959848      -0.10741626       1.24815364       0.00000000
Si      -1.36679616      -0.32454567      -3.25114108       0.00000000
Si      -0.73995696      -0.64399257       3.41512150       0.00000000
Si      -2.03828625      -2.29832352      -1.99974781       0.00000000
Si       0.58898124       1.27513233       3.41660346       0.00000000
