10
Lattice="16.28999089631971 0.0 0.0 0.0 16.28999089631971 0.0 0.0 0.0 34.46413024517268" Properties=species:S:1:pos:R:3:initial_magmoms:R:1 pbc="T T T"
Si      -1.71059661       0.45608742       1.53231055       0.00000000
Si      -0.91536768      -0.88770726      -1.97365845       0.00000000
Si       0.90984537       2.13601975      -0.47491598       0.00000000
Si       1.72375146      -1.42063461       0.81966087       0.00000000
Si       3.50006030      -0.47166066      -0.34050580       0.00000000
Si      -0.67284216       2.17406391       2.75882070       0.00000000
Si       0.54242442       2.18650963      -2.85370051       0.00000000
Si      -1.53070614       1.04269032      -3.19548148       0.00000000
Si      -3.32430030       1.60964748       0.15526099       0.00000000
Si       3.22423802       1.77503985       0.35177557       0.00000000
