10
Lattice="16.28999089631971 0.0 0.0 0.0 16.28999089631971 0.0 0.0 0.0 34.46413024517268" Properties=species:S:1:pos:R:3:initial_magmoms:R:1 pbc="T T T"
Si       1.71059661      -0.45608742      -1.53231055       0.00000000
Si       1.03775445       1.71797649       1.22651015       0.00000000
Si      -1.61370369       1.15356006      -1.37704956       0.00000000
Si      -0.55983843      -2.00937150       1.27158926       0.00000000
Si       1.41244074       3.25127942      -0.57034721       0.00000000
Si      -3.35112993      -0.49785498      -1.37484385       0.00000000
Si       2.62044198       1.67993233      -2.00722653       0.00000000
Si       3.07700085       0.93457359       1.88291434       0.00000000
Si      -2.41886952       2.87603275       0.02705436       0.00000000
Si      -0.50350761      -0.90414387       3.63469260       0.00000000
