10
Lattice="16.28999089631971 0.0 0.0 0.0 16.28999089631971 0.0 0.0 0.0 34.46413024517268" Properties=species:S:1:pos:R:3:initial_magmoms:R:1 pbc="T T T"
Si      -1.70150353       1.56486627      -0.23921566       0.00000000
Si       1.48431222       0.33829443       1.75625859       0.00000000
Si      -1.31347899      -1.92642282       0.10242745       0.00000000
Si       1.07779527       0.73267533      -1.96938490       0.00000000
Si      -1.99929451      -1.46098494      -2.11261790       0.00000000
Si       1.86719238       2.68615584      -0.99608285       0.00000000
Si      -2.35184106       0.85320504      -2.35913996       0.00000000
Si      -0.27681597       3.44689884      -0.16398042       0.00000000
Si       0.23949558      -3.68494298      -0.17304449       0.00000000
Si       2.29008078      -1.03865040      -2.78239418       0.00000000
