10
Lattice="16.28999089631971 0.0 0.0 0.0 16.28999089631971 0.0 0.0 0.0 34.46413024517268" Properties=species:S:1:pos:R:3:initial_magmoms:R:1 pbc="T T T"
Si      -1.32471583       1.41815853       1.29574863       0.00000000
Si      -1.85391310      -0.92010807      -1.08544839       0.00000000
Si       1.57991823      -1.76880078       0.15271065       0.00000000
Si       1.10547198       1.87681977      -0.96651261       0.00000000
Si       2.20988511       0.49005207      -2.49103426       0.00000000
Si       2.17432404       2.27175453       1.27314015       0.00000000
Si      -0.54199436      -2.24236737      -2.51233311       0.00000000
Si       0.63498420      -0.93745692       3.46609398       0.00000000
Si       2.50473411       0.29444175       2.67403890       0.00000000
Si       0.91820214      -2.85413832       2.17789300       0.00000000
