10
Lattice="16.28999089631971 0.0 0.0 0.0 16.28999089631971 0.0 0.0 0.0 34.46413024517268" Properties=species:S:1:pos:R:3:initial_magmoms:R:1 pbc="T T T"
Si      -0.92236098      -1.75881501       1.24795861       0.00000000
Si       1.75591539       0.90940554       1.35699629       0.00000000
Si      -1.78883748       1.64142927      -0.30800610       0.00000000
Si      -1.67148106       0.66060837      -2.91359920       0.00000000
Si       0.41891364       2.26939248       2.71343284       0.00000000
Si      -2.31114375      -0.46257084       2.68982145       0.00000000
Si      -2.06739159      -3.08247525      -0.51251637       0.00000000
Si       0.51007248       0.27743499      -3.72340332       0.00000000
Si      -0.86428550       3.50476092       1.15010110       0.00000000
Si      -3.64890203       0.82684782       1.07851907       0.00000000
