10
Lattice="16.28999089631971 0.0 0.0 0.0 16.28999089631971 0.0 0.0 0.0 34.46413024517268" Properties=species:S:1:pos:R:3:initial_magmoms:R:1 pbc="T T T"
Si       1.52588430       1.79623314       0.06272475       0.00000000
Si      -2.18155354       0.38317338       0.80980412       0.00000000
Si       0.18318105      -0.51991164      -2.31306139       0.00000000
Si      -1.24150651      -2.40194421      -2.38829663       0.00000000
Si      -3.00660362       1.79435979      -0.98533003       0.00000000
Si       3.61877463       0.64931940      -0.29935560       0.00000000
Si      -0.51007248      -0.27743499       3.72340332       0.00000000
Si      -3.18199805      -1.83907584       1.18246497       0.00000000
Si      -0.21079260       1.32330186      -3.69345397       0.00000000
Si       2.32718940      -1.28065464      -3.14516382       0.00000000
