10
Lattice="10.86 0.0 0.0 0.0 10.86 0.0 0.0 0.0 10.86" Properties=species:S:1:pos:R:3:initial_magmoms:R:1 pbc="T T T"
Si      -1.40324232      -1.26732942      -1.26287682       0.00000000
Si       1.31175768       1.44767058      -1.26287682       0.00000000
Si       1.31175768      -1.26732942       1.45212318       0.00000000
Si      -0.04574232      -2.62482942      -2.62037682       0.00000000
Si       2.66925768       0.09017058      -2.62037682       0.00000000
Si       2.66925768      -2.62482942       0.09462318       0.00000000
Si      -2.76074232       0.09017058      -2.62037682       0.00000000
Si      -2.76074232      -2.62482942       0.09462318       0.00000000
Si      -2.66694450       0.12436872       2.75009952       0.00000000
Si      -0.04574232       2.80517058      -2.62037682       0.00000000
