10
Lattice="10.86 0.0 0.0 0.0 10.86 0.0 0.0 0.0 10.86" Properties=species:S:1:pos:R:3:initial_magmoms:R:1 pbc="T T T"
Si       1.26370218      -1.39169814       1.41702366       0.00000000
Si      -1.45129782      -1.39169814      -1.29797634       0.00000000
Si      -1.45129782       1.32330186       1.41702366       0.00000000
Si       0.06933024       2.74487586      -2.58684114       0.00000000
Si       2.62120218      -2.74919814       0.05952366       0.00000000
Si       2.62120218      -0.03419814       2.77452366       0.00000000
Si      -0.09379782      -2.74919814      -2.65547634       0.00000000
Si       2.66694450      -0.12436872      -2.75009952       0.00000000
Si      -0.09379782       2.68080186       2.77452366       0.00000000
Si      -2.80879782      -0.03419814      -2.65547634       0.00000000
