10
Lattice="10.86 0.0 0.0 0.0 10.86 0.0 0.0 0.0 10.86" Properties=species:S:1:pos:R:3:initial_magmoms:R:1 pbc="T T T"
Si       1.10458146      -1.06510536      -1.47843696       0.00000000
Si      -1.56562104       1.26061794      -1.08439272       0.00000000
Si      -1.61041854      -1.06510536       1.23656304       0.00000000
Si       1.10458146       1.64989464       1.23656304       0.00000000
Si       2.46208146      -2.42260536      -0.12093696       0.00000000
Si      -0.25291854      -2.42260536       2.59406304       0.00000000
Si       2.46208146       0.29239464       2.59406304       0.00000000
Si       2.39419560       0.29345892      -2.77807488       0.00000000
Si      -0.25291854      -2.42260536      -2.83593696       0.00000000
Si      -2.96791854      -2.42260536      -0.12093696       0.00000000
