10
Lattice="10.86 0.0 0.0 0.0 10.86 0.0 0.0 0.0 10.86" Properties=species:S:1:pos:R:3:initial_magmoms:R:1 pbc="T T T"
Si       1.39628106      -1.25617620      -1.29021144       0.00000000
Si      -1.32792822       1.38854874      -1.27304178       0.00000000
Si      -1.32792822      -1.32645126       1.44195822       0.00000000
Si       1.38707178       1.38854874       1.44195822       0.00000000
Si       0.02799708      -2.64402990      -2.62134336       0.00000000
Si       2.71488054       0.15788268      -2.59309650       0.00000000
Si      -2.68542822       0.03104874      -2.63054178       0.00000000
Si      -2.68542822      -2.68395126       0.08445822       0.00000000
Si       0.02957178       2.74604874      -2.63054178       0.00000000
Si      -2.68542822       2.74604874       0.08445822       0.00000000
