10
Lattice="16.28999089631971 0.0 0.0 0.0 16.28999089631971 0.0 0.0 0.0 34.24959146834617" Properties=species:S:1:pos:R:3:initial_magmoms:R:1 pbc="T T T"
Si      -1.35343836       1.35915615       1.36330575       0.00000000
Si       1.36334268      -1.35788553       1.36251801       0.00000000
Si      -1.37191122      -1.34159553      -1.37462182       0.00000000
Si       1.37876931       1.37402892      -1.37615278       0.00000000
Si       0.07071489      -2.58828552      -2.72579293       0.00000000
Si      -2.70897813       2.70878265       0.00520594       0.00000000
Si      -2.71085148      -2.71623207       0.00205498       0.00000000
Si      -2.71060713      -0.00087966       2.71928208       0.00000000
Si       2.71754667       2.71451673       0.00719242       0.00000000
Si       0.00405621       2.71454931       2.71969308       0.00000000
