10
Lattice="16.28999089631971 0.0 0.0 0.0 16.28999089631971 0.0 0.0 0.0 34.24959146834617" Properties=species:S:1:pos:R:3:initial_magmoms:R:1 pbc="T T T"
Si       1.35710361       1.35692442       1.35703807       0.00000000
Si       1.35698958      -1.35685274      -1.35734632       0.00000000
Si      -1.35780408      -1.35781223       1.35744907       0.00000000
Si      -1.35731538       1.35759231      -1.35816831       0.00000000
Si      -0.00144981      -2.71413485      -2.71404189       0.00000000
Si      -2.71445157       0.00094482      -2.71393914       0.00000000
Si       2.71443528      -2.71459523       0.00013700       0.00000000
Si      -2.71494027      -2.71506710      -0.00027400       0.00000000
Si       2.71511946       2.71510317      -0.00003425       0.00000000
Si       0.00184077      -2.71741868       2.71373365       0.00000000
