10
Lattice="16.28999089631971 0.0 0.0 0.0 16.28999089631971 0.0 0.0 0.0 34.24959146834617" Properties=species:S:1:pos:R:3:initial_magmoms:R:1 pbc="T T T"
Si       1.35747828       1.35183705      -1.36995017       0.00000000
Si      -1.35741312      -1.36351280      -1.37149141       0.00000000
Si      -1.27997046       1.40688096       1.44427183       0.00000000
Si       1.26076455      -1.29705313       1.55986427       0.00000000
Si      -2.11421394      -0.32744855       2.88686543       0.00000000
Si      -0.48459492      -2.23302898       2.81637973       0.00000000
Si       2.19033711       0.55556556       2.89823630       0.00000000
Si       2.70471015      -2.70669331       0.01996752       0.00000000
Si       2.72471427       2.70403737       0.00880215       0.00000000
Si      -2.69808012      -2.73451663      -0.00455520       0.00000000
