10
Lattice="16.28999089631971 0.0 0.0 0.0 16.28999089631971 0.0 0.0 0.0 34.24959146834617" Properties=species:S:1:pos:R:3:initial_magmoms:R:1 pbc="T T T"
Si       0.83424348       1.73432951      -1.44259360       0.00000000
Si      -1.70909793      -0.89505845      -1.52842312       0.00000000
Si       1.62961902      -1.90558044      -0.07048570       0.00000000
Si       0.08127081       0.79351685       2.44679218       0.00000000
Si      -2.91284748       1.05282107       1.36837469       0.00000000
Si       2.11421394       0.32744855      -2.88686543       0.00000000
Si      -0.27811917      -1.41244956       3.32933615       0.00000000
Si       2.40370353       2.85680825       0.03185214       0.00000000
Si       3.37497849      -0.96960458      -1.32700116       0.00000000
Si      -0.58386618      -2.40706809      -2.89142063       0.00000000
