10
Lattice="16.28999089631971 0.0 0.0 0.0 16.28999089631971 0.0 0.0 0.0 34.24959146834617" Properties=species:S:1:pos:R:3:initial_magmoms:R:1 pbc="T T T"
Si      -1.35710361      -1.35692442      -1.35703807       0.00000000
Si       1.35801585       1.35817875      -1.35707232       0.00000000
Si       1.35962856      -1.35899325       1.35823681       0.00000000
Si      -1.35713619       1.35953082       1.36173027       0.00000000
Si       2.71463076      -2.71245605      -0.00065074       0.00000000
Si      -0.00011403      -2.71377716      -2.71438439       0.00000000
Si       2.71469592       0.00164529      -2.71435014       0.00000000
Si      -2.71441899       0.00066789      -2.71520638       0.00000000
Si      -2.71490769      -2.71473665       0.00041100       0.00000000
Si       0.00024435       2.71609686      -2.71479538       0.00000000
