10
Lattice="16.28999089631971 0.0 0.0 0.0 16.28999089631971 0.0 0.0 0.0 34.24959146834617" Properties=species:S:1:pos:R:3:initial_magmoms:R:1 pbc="T T T"
Si      -1.33762077      -1.36453185      -1.37861533       0.00000000
Si       1.37670048       1.35001746      -1.37758784       0.00000000
Si       1.39229001      -1.34786718       1.38700648       0.00000000
Si      -1.40559894       1.40488218       1.48660435       0.00000000
Si      -2.69544114       2.71487511      -0.01369984       0.00000000
Si      -2.70078426      -2.71469592       0.00732942       0.00000000
Si      -2.69555517      -0.00817758      -2.73976335       0.00000000
Si       0.01964574       2.70749574      -2.73955785       0.00000000
Si       2.74940991       2.70195714      -0.01476158       0.00000000
Si       0.01951542      -2.72406267      -2.74034559       0.00000000
