10
Lattice="16.28999089631971 0.0 0.0 0.0 16.28999089631971 0.0 0.0 0.0 34.24959146834617" Properties=species:S:1:pos:R:3:initial_magmoms:R:1 pbc="T T T"
Si       1.33149573      -1.85376942      -0.69163664       0.00000000
Si       0.42872022       1.19206962       2.02757695       0.00000000
Si       0.12566106       1.73236005      -1.65942788       0.00000000
Si      -2.24826435      -0.80356941       0.26529748       0.00000000
Si      -2.17394937       2.43468711      -1.53945150       0.00000000
Si      -3.23631801       0.27277605      -1.57692057       0.00000000
Si       0.09728388      -2.80631088      -2.48751497       0.00000000
Si      -3.12284187       0.05825304       2.26961895       0.00000000
Si      -0.33570432       3.47073111       1.80577647       0.00000000
Si       0.53123319       0.81581949      -3.80526874       0.00000000
