10
Lattice="16.28999089631971 0.0 0.0 0.0 16.28999089631971 0.0 0.0 0.0 34.24959146834617" Properties=species:S:1:pos:R:3:initial_magmoms:R:1 pbc="T T T"
Si      -1.33429761      -1.11029382       1.61743786       0.00000000
Si       2.18527092      -0.89492373       0.55600818       0.00000000
Si      -0.30527460       2.46440007      -0.18419441       0.00000000
Si      -0.79943175      -0.88545924      -2.20790115       0.00000000
Si      -0.71980623      -3.15416754       0.38513687       0.00000000
Si       2.02839822       2.80629459      -0.14066315       0.00000000
Si       1.68477696      -3.16081386      -0.06212879       0.00000000
Si      -2.64686436       0.67873914      -2.38445789       0.00000000
Si       2.64839562       1.28042658      -2.12604458       0.00000000
Si       1.01685438      -0.10425600      -3.53863552       0.00000000
