10
Lattice="16.28999089631971 0.0 0.0 0.0 16.28999089631971 0.0 0.0 0.0 34.24959146834617" Properties=species:S:1:pos:R:3:initial_magmoms:R:1 pbc="T T T"
Si       0.95289984      -0.88016499      -1.98894339       0.00000000
Si       1.42840494      -1.00219338       1.82786747       0.00000000
Si       0.26803566       2.46495393      -0.57076976       0.00000000
Si      -2.40049440      -1.47696543       0.37996518       0.00000000
Si      -3.19132340       1.25535627      -0.23543182       0.00000000
Si      -1.10108997      -0.87477300      -3.19281720       0.00000000
Si      -2.02017177       2.42812224       1.86160334       0.00000000
Si      -2.46055563       1.03338873      -2.66564719       0.00000000
Si      -0.69043536       2.58452253      -2.81298902       0.00000000
Si      -2.57297292      -2.16161784      -1.99791679       0.00000000
