10
Lattice="16.28999089631971 0.0 0.0 0.0 16.28999089631971 0.0 0.0 0.0 34.24959146834617" Properties=species:S:1:pos:R:3:initial_magmoms:R:1 pbc="T T T"
Si       0.43976484      -0.69618573      -2.28126381       0.00000000
Si       1.91679543       0.49115979       1.45273289       0.00000000
Si      -1.95559821       1.64198313       0.11552394       0.00000000
Si      -0.64739718      -1.95491403       1.56350298       0.00000000
Si       0.52427736       1.90550646       2.99251661       0.00000000
Si      -0.68753574      -3.58994133      -0.20128496       0.00000000
Si       1.13200839      -3.07387413      -1.64470055       0.00000000
Si      -0.88427007       3.29937660       1.46272693       0.00000000
Si      -2.19737439      -0.83624715       3.02452287       0.00000000
Si      -1.66667877      -0.51464997      -3.47948644       0.00000000
