10
Lattice="16.28999089631971 0.0 0.0 0.0 16.28999089631971 0.0 0.0 0.0 34.24959146834617" Properties=species:S:1:pos:R:3:initial_magmoms:R:1 pbc="T T T"
Si       1.35752715      -1.35747828       1.36570322       0.00000000
Si      -1.35878148       1.35886103       1.36577172       0.00000000
Si      -1.36844145      -1.36943514      -1.37517324       0.00000000
Si       1.38360744       1.36386396      -1.37907770       0.00000000
Si      -2.71423980      -2.71295289       0.00794591       0.00000000
Si       2.71318095       2.71420300       0.00493194       0.00000000
Si       2.71347417      -2.71401174       0.00517169       0.00000000
Si      -2.71489140       2.71523579       0.00441820       0.00000000
Si      -0.00048870      -2.71414206       2.72212480       0.00000000
Si       2.71474479       0.00123804       2.72174806       0.00000000
