10
Lattice="16.28999089631971 0.0 0.0 0.0 16.28999089631971 0.0 0.0 0.0 34.24959146834617" Properties=species:S:1:pos:R:3:initial_magmoms:R:1 pbc="T T T"
Si      -1.35754344      -1.35652532       1.35614758       0.00000000
Si       1.35733167       1.35759231       1.35587358       0.00000000
Si      -1.35747828       1.35757602      -1.35755182       0.00000000
Si       1.35821133      -1.35829115      -1.35803131       0.00000000
Si       0.00127062       2.71160082       2.71328840       0.00000000
Si      -2.71254564      -0.00306252       2.71503513       0.00000000
Si      -2.71264338      -0.00040725      -2.71517213       0.00000000
Si       0.00109143      -2.71343133      -2.71462414       0.00000000
Si      -2.71415835       2.71410948      -0.00027400       0.00000000
Si       2.71135647       0.00531054       2.71691886       0.00000000
