10
Lattice="16.28999089631971 0.0 0.0 0.0 16.28999089631971 0.0 0.0 0.0 34.24959146834617" Properties=species:S:1:pos:R:3:initial_magmoms:R:1 pbc="T T T"
Si      -1.35500220       1.35346279       1.35888755       0.00000000
Si       1.35754344       1.35652532      -1.35614758       0.00000000
Si      -1.35729909      -1.35906361      -1.35625033       0.00000000
Si       1.35431802      -1.35692620       1.36447024       0.00000000
Si      -2.71463076       2.71245605       0.00065074       0.00000000
Si       0.00006516       2.71410133      -2.71369940       0.00000000
Si      -2.71474479      -0.00132112      -2.71373365       0.00000000
Si      -2.71397916      -2.71461351       0.00030825       0.00000000
Si       2.71487511       2.71411762      -0.00027400       0.00000000
Si       2.71575477      -0.00176584      -2.71417889       0.00000000
