10
Lattice="16.28999089631971 0.0 0.0 0.0 16.28999089631971 0.0 0.0 0.0 34.24959146834617" Properties=species:S:1:pos:R:3:initial_magmoms:R:1 pbc="T T T"
Si       1.53140661       1.60714045       0.62183593       0.00000000
Si       0.40378023      -0.90291139      -2.16639062       0.00000000
Si      -2.04726204       1.19531296       0.39020581       0.00000000
Si       1.08119988      -2.01807592       0.96703776       0.00000000
Si       1.96644735      -2.44972834      -1.26261190       0.00000000
Si      -1.41716484      -2.50930087      -1.97212683       0.00000000
Si      -2.49556284       0.15165501       2.50118056       0.00000000
Si       3.38229270       1.24046884      -0.75808088       0.00000000
Si       0.57163239       3.76129747       0.20128496       0.00000000
Si      -1.56333501       3.43090369       1.11208486       0.00000000
