10
Lattice="16.28999089631971 0.0 0.0 0.0 16.28999089631971 0.0 0.0 0.0 34.24959146834617" Properties=species:S:1:pos:R:3:initial_magmoms:R:1 pbc="T T T"
Si      -0.44830080      -1.04365795       2.11097475       0.00000000
Si       0.48392703       2.23559073       0.72187904       0.00000000
Si       2.04726204      -1.19531296      -0.39020581       0.00000000
Si      -1.58016258      -0.22169876      -1.86725452       0.00000000
Si      -2.68354944      -2.13025049      -1.08694564       0.00000000
Si       3.57866865       0.41182749       0.23163012       0.00000000
Si       2.61889443       2.56598451      -0.18892085       0.00000000
Si      -2.70907587      -0.48564888       2.60317590       0.00000000
Si      -0.53807499      -3.37457843       1.64956400       0.00000000
Si      -1.07904960      -3.81471794      -0.62197293       0.00000000
