10
Lattice="16.28999089631971 0.0 0.0 0.0 16.28999089631971 0.0 0.0 0.0 34.24959146834617" Properties=species:S:1:pos:R:3:initial_magmoms:R:1 pbc="T T T"
Si       1.91490579       0.29664090      -1.37536161       0.00000000
Si      -1.89247446      -0.30959145      -1.41142645       0.00000000
Si       0.07749153      -2.03716224       1.29518327       0.00000000
Si       0.05874174       1.94518890       1.52338843       0.00000000
Si      -0.67869027      -0.90769509       3.39256093       0.00000000
Si       1.96920036      -2.96995208      -0.33585168       0.00000000
Si      -1.67418846      -2.70418398      -1.86540504       0.00000000
Si      -1.76080239       1.42912170       2.96680402       0.00000000
Si       3.53940975      -1.14443766      -0.40109719       0.00000000
Si      -1.83716991       1.45857402      -3.03061104       0.00000000
