10
Lattice="16.28999089631971 0.0 0.0 0.0 16.28999089631971 0.0 0.0 0.0 34.24959146834617" Properties=species:S:1:pos:R:3:initial_magmoms:R:1 pbc="T T T"
Si      -2.09618091       1.03490370      -0.06829372       0.00000000
Si       1.44156726       1.06898238      -1.53434831       0.00000000
Si       0.64554012       0.50295375       2.24167126       0.00000000
Si       0.11490966      -2.40440400      -0.16319939       0.00000000
Si       3.04253217      -0.00013032       1.51465478       0.00000000
Si       3.13603677       1.66076550      -0.07558889       0.00000000
Si      -3.67916166      -0.60316983       0.49613986       0.00000000
Si       2.17763091      -2.87075412      -1.19126996       0.00000000
Si      -2.48419242       1.88667522      -2.19276282       0.00000000
Si      -1.49666004       0.16162938       3.51209207       0.00000000
