10
Lattice="16.28999089631971 0.0 0.0 0.0 16.28999089631971 0.0 0.0 0.0 34.24959146834617" Properties=species:S:1:pos:R:3:initial_magmoms:R:1 pbc="T T T"
Si      -0.85734270      -2.19116790       0.12966903       0.00000000
Si      -1.12764267       1.20633966      -1.68994429       0.00000000
Si       1.61145567      -0.40482279      -1.70539086       0.00000000
Si       1.15131204       1.11096171       1.85064346       0.00000000
Si       1.01455749       1.54766403      -2.96036509       0.00000000
Si      -1.25343405      -2.47075317      -2.24167126       0.00000000
Si      -2.56453470      -0.46661076      -2.59985369       0.00000000
Si       3.44878848       0.81197505       1.15517087       0.00000000
Si       1.31173596      -0.55570077       3.48321965       0.00000000
Si       3.74202477      -0.49792014      -0.76702003       0.00000000
