10
Lattice="16.28999089631971 0.0 0.0 0.0 16.28999089631971 0.0 0.0 0.0 34.24959146834617" Properties=species:S:1:pos:R:3:initial_magmoms:R:1 pbc="T T T"
Si      -1.60249617      -1.16673867      -1.29713349       0.00000000
Si      -1.26058536       1.34623818       1.54444852       0.00000000
Si       1.42716690      -1.35764118       1.54479786       0.00000000
Si       0.82582155       1.14332994      -2.56830778       0.00000000
Si      -3.28823424       0.71895915      -1.21692090       0.00000000
Si       2.96103330       1.28681226      -1.67062549       0.00000000
Si      -2.58125801       2.70111006       0.09682022       0.00000000
Si      -2.60424646      -2.79853240       0.15706186       0.00000000
Si       2.86979301      -2.60433117       0.19362675       0.00000000
Si      -2.62686024      -0.01870092       2.92294739       0.00000000
