10
Lattice="16.28999089631971 0.0 0.0 0.0 16.28999089631971 0.0 0.0 0.0 34.24959146834617" Properties=species:S:1:pos:R:3:initial_magmoms:R:1 pbc="T T T"
Si       1.34374581       1.34620560       1.39905207       0.00000000
Si      -1.36925595      -1.36923966       1.39884657       0.00000000
Si      -1.40854743       1.39387014      -1.52978968       0.00000000
Si       1.39251807      -1.41434667      -1.53978372       0.00000000
Si      -0.52427736      -1.90550646      -2.99251661       0.00000000
Si      -2.47987557      -0.26352333      -2.87699268       0.00000000
Si       2.70154989       2.68490151       0.00410310       0.00000000
Si       2.67889050      -2.72502378       0.03906853       0.00000000
Si      -2.73816981       2.69078220       0.01870714       0.00000000
Si       2.70251100      -0.01016496       2.75927535       0.00000000
