10
Lattice="16.28999089631971 0.0 0.0 0.0 16.28999089631971 0.0 0.0 0.0 34.24959146834617" Properties=species:S:1:pos:R:3:initial_magmoms:R:1 pbc="T T T"
Si       0.19860768       0.04320108       2.34938629       0.00000000
Si       1.47716091       1.43156520      -1.17020645       0.00000000
Si       0.83479734      -2.12952654      -0.61368452       0.00000000
Si      -2.13232842       0.80627355      -0.81901094       0.00000000
Si       0.39444606       0.94934862      -3.22055938       0.00000000
Si      -0.02288745       2.42279541       2.65955076       0.00000000
Si      -1.55336553       2.13032475      -2.68342274       0.00000000
Si       3.62015928       0.47912148      -1.32275421       0.00000000
Si       2.97699750      -1.78820217      -1.88410533       0.00000000
Si      -3.11945355       2.38770675       0.58292837       0.00000000
