10
Lattice="16.28999089631971 0.0 0.0 0.0 16.28999089631971 0.0 0.0 0.0 34.24959146834617" Properties=species:S:1:pos:R:3:initial_magmoms:R:1 pbc="T T T"
Si      -1.35549638       1.35840651      -1.35683257       0.00000000
Si      -1.35634346      -1.35781971       1.35693532       0.00000000
Si       1.35873757       1.35713915       1.35662708       0.00000000
Si       1.35869196      -1.35724956      -1.36214126       0.00000000
Si      -2.71185065       2.71494811       0.00017125       0.00000000
Si      -2.71325159      -0.00056572       2.71407614       0.00000000
Si      -2.71235564      -2.71591701       0.00075349       0.00000000
Si       0.00173773       2.71457344       2.71390490       0.00000000
Si       0.00174077      -2.71533057       2.71393914       0.00000000
Si       0.00397303       2.70435961      -2.72609433       0.00000000
