10
Lattice="16.28999089631971 0.0 0.0 0.0 16.28999089631971 0.0 0.0 0.0 34.24959146834617" Properties=species:S:1:pos:R:3:initial_magmoms:R:1 pbc="T T T"
Si       1.35068535       1.34649882       1.38017711       0.00000000
Si      -1.36627488      -1.36493910       1.37849888       0.00000000
Si      -1.32067265       1.35487188      -1.44762829       0.00000000
Si       1.26058536      -1.34623818      -1.54444852       0.00000000
Si      -2.02764888      -0.62727903      -2.76136941       0.00000000
Si      -0.34191081      -2.51297685      -2.84158200       0.00000000
Si       2.68775226      -2.70387936       0.00034935       0.00000000
Si       2.71178001       2.69426826       0.01073383       0.00000000
Si      -2.72622014       2.70967860      -0.00730544       0.00000000
Si       2.70622512      -0.00312768       2.73827692       0.00000000
