10
Lattice="16.28999089631971 0.0 0.0 0.0 16.28999089631971 0.0 0.0 0.0 34.24959146834617" Properties=species:S:1:pos:R:3:initial_magmoms:R:1 pbc="T T T"
Si       1.56266712      -1.54681695       0.90377872       0.00000000
Si      -0.40378023       0.90291139       2.16639062       0.00000000
Si      -1.82094507      -1.60638948       0.19426379       0.00000000
Si       0.62887545       1.51753960      -1.85304093       0.00000000
Si       0.67741965      -1.11516453       3.13342838       0.00000000
Si       2.43512694       2.70514088      -0.81325700       0.00000000
Si      -3.24935001      -1.14134256      -1.58007154       0.00000000
Si       1.16335035      -3.60621504      -0.03674983       0.00000000
Si      -1.47667221       2.54659031      -2.46744470       0.00000000
Si       1.38030057       0.12572622      -3.64820002       0.00000000
