10
Lattice="16.28999089631971 0.0 0.0 0.0 16.28999089631971 0.0 0.0 0.0 34.24959146834617" Properties=species:S:1:pos:R:3:initial_magmoms:R:1 pbc="T T T"
Si      -1.06163559       1.89815871      -0.93611036       0.00000000
Si       2.33502489      -0.18098190      -0.67033338       0.00000000
Si      -0.12670362       0.17643699       2.50926347       0.00000000
Si      -0.20786040      -2.25306990      -1.13342236       0.00000000
Si       1.72239057      -1.49685552       2.69791033       0.00000000
Si       3.06574542      -2.11362750       0.62467865       0.00000000
Si       0.50857380       3.72367313      -1.00135587       0.00000000
Si      -2.24391492      -3.17540970      -0.52199832       0.00000000
Si      -0.52103565      -1.94639436      -3.46575235       0.00000000
Si      -2.95334442       2.83094855       0.69492460       0.00000000
