10
Lattice="16.28999089631971 0.0 0.0 0.0 16.28999089631971 0.0 0.0 0.0 34.24959146834617" Properties=species:S:1:pos:R:3:initial_magmoms:R:1 pbc="T T T"
Si      -0.91388529       2.14255854       0.67444333       0.00000000
Si      -1.45845999      -0.93398715      -1.70484287       0.00000000
Si       0.24283503      -1.27335672       2.08104059       0.00000000
Si       2.40831360       0.55193778      -0.21231334       0.00000000
Si       0.23397327      -1.47061233      -3.27063232       0.00000000
Si       1.32507747       0.36611775       3.48194355       0.00000000
Si      -2.97360918       1.95556563       1.71508350       0.00000000
Si       3.28205123       1.07171910       2.11676293       0.00000000
Si       1.22316723       3.51023436      -1.65360545       0.00000000
Si      -1.07430921       3.80922102      -0.95813286       0.00000000
