10
Lattice="16.28999089631971 0.0 0.0 0.0 16.28999089631971 0.0 0.0 0.0 34.24959146834617" Properties=species:S:1:pos:R:3:initial_magmoms:R:1 pbc="T T T"
Si       1.35777280      -1.35428544       1.35953829       0.00000000
Si      -1.35793440      -1.35682668      -1.35690107       0.00000000
Si       1.35769025       1.35795069      -1.35714082       0.00000000
Si      -1.35785295       1.35596331       1.36032603       0.00000000
Si      -2.70443322      -0.01679499       2.72222755       0.00000000
Si       0.00024435      -2.71485882      -2.71438439       0.00000000
Si      -2.71562445      -2.71383255      -0.00095899       0.00000000
Si       2.71566096      -2.71379997      -0.00068499       0.00000000
Si      -2.71533123       0.00042354      -2.71417889       0.00000000
Si       2.71422744       2.71562445       0.00037675       0.00000000
