10
Lattice="16.28999089631971 0.0 0.0 0.0 16.28999089631971 0.0 0.0 0.0 34.24959146834617" Properties=species:S:1:pos:R:3:initial_magmoms:R:1 pbc="T T T"
Si       1.23202899      -1.40737455       1.39344541       0.00000000
Si      -1.33876107      -1.36428750      -1.37248465       0.00000000
Si       1.38061138       1.34754138      -1.37303264       0.00000000
Si      -1.45621197       1.37323071       1.59305214       0.00000000
Si      -2.68159464       2.68503183      -0.01034338       0.00000000
Si      -2.69946477      -2.71566680       0.00979539       0.00000000
Si       2.73967079       2.68078014      -0.00647318       0.00000000
Si       2.51882400       0.02912652       2.89405785       0.00000000
Si      -2.69278587      -0.01200573      -2.73352992       0.00000000
Si       0.02283858       2.70182682      -2.73257093       0.00000000
