10
Lattice="16.28999089631971 0.0 0.0 0.0 16.28999089631971 0.0 0.0 0.0 34.24959146834617" Properties=species:S:1:pos:R:3:initial_magmoms:R:1 pbc="T T T"
Si      -1.30269501       1.34206794       1.40166531       0.00000000
Si      -1.36725228      -1.34302905      -1.36577172       0.00000000
Si       1.34658027       1.37275830      -1.36190152       0.00000000
Si       1.22538267      -1.31180112       1.60339552       0.00000000
Si       2.38549131       0.46229391       2.70099279       0.00000000
Si       0.47905632       2.32165080       2.80661859       0.00000000
Si      -0.61465428      -2.10056292       2.98228484       0.00000000
Si       2.68159464      -2.68503183       0.01034338       0.00000000
Si      -2.71383255      -2.70549207       0.01472733       0.00000000
Si      -0.01119123      -2.69703756      -2.72318654       0.00000000
