10
Lattice="16.28999089631971 0.0 0.0 0.0 16.28999089631971 0.0 0.0 0.0 34.24959146834617" Properties=species:S:1:pos:R:3:initial_magmoms:R:1 pbc="T T T"
Si      -1.12842459      -1.66418640       1.19104014       0.00000000
Si       1.72776627       1.10631906       1.14381678       0.00000000
Si      -1.70851149       1.68635709      -0.20789004       0.00000000
Si      -0.50295375      -2.64303621      -1.62037823       0.00000000
Si      -1.47499434       1.29989313      -2.72876413       0.00000000
Si      -0.66337767      -0.97637373      -3.25295442       0.00000000
Si       0.29641284       2.34401697       2.59361992       0.00000000
Si      -2.45703699      -0.37559853       2.60110688       0.00000000
Si      -2.56267764      -2.83002912      -0.57973806       0.00000000
Si      -0.95827554       3.63073149       1.05715499       0.00000000
