10
Lattice="16.28999089631971 0.0 0.0 0.0 16.28999089631971 0.0 0.0 0.0 34.24959146834617" Properties=species:S:1:pos:R:3:initial_magmoms:R:1 pbc="T T T"
Si       1.69446951       0.59178312       1.45875942       0.00000000
Si       1.37893221      -1.41672501      -1.25134377       0.00000000
Si      -1.44156726      -1.06898238       1.53434831       0.00000000
Si      -0.48206997       1.60901217      -1.68580008       0.00000000
Si       2.87666739       0.52488009      -1.87677591       0.00000000
Si       1.60096491      -1.06911270       3.04900309       0.00000000
Si      -0.20668752      -2.85252561      -2.34695457       0.00000000
Si       3.67102385       0.69393771       0.33129648       0.00000000
Si      -2.55961512       2.57567706      -1.12554495       0.00000000
Si      -3.53774817      -0.03407868       1.46605458       0.00000000
