10
Lattice="16.28999089631971 0.0 0.0 0.0 16.28999089631971 0.0 0.0 0.0 34.24959146834617" Properties=species:S:1:pos:R:3:initial_magmoms:R:1 pbc="T T T"
Si       0.35161965      -1.90593000      -1.21791615       0.00000000
Si      -1.27640295       1.26780183      -1.49718748       0.00000000
Si      -1.49571522      -0.79641810       1.66069512       0.00000000
Si       1.90683314       1.25165844       0.81472974       0.00000000
Si      -0.87708618       3.32719992      -0.55665892       0.00000000
Si       1.48900374       3.10940262      -0.61957546       0.00000000
Si      -0.18870336      -0.20857716       3.54795141       0.00000000
Si       0.25811505      -3.56682582       0.37232752       0.00000000
Si       1.37551131       1.55362617       3.09784303       0.00000000
Si       2.32817399      -1.80377541      -2.34537908       0.00000000
