10
Lattice="16.28999089631971 0.0 0.0 0.0 16.28999089631971 0.0 0.0 0.0 34.24959146834617" Properties=species:S:1:pos:R:3:initial_magmoms:R:1 pbc="T T T"
Si       1.35699984      -1.35743430      -1.35727782       0.00000000
Si      -1.35749475       1.35715248      -1.35707232       0.00000000
Si      -1.35659880      -1.35728769       1.35813406       0.00000000
Si       1.35792185       1.35821133       1.35662708       0.00000000
Si      -2.71358838       0.00037467      -2.71373365       0.00000000
Si      -0.00173773      -2.71457344      -2.71390490       0.00000000
Si       2.71556629       0.00053757      -2.71369940       0.00000000
Si       2.71398616       2.71552671       0.00010275       0.00000000
Si       2.71141234       0.00091224       2.71815185       0.00000000
Si      -0.00055404       2.71453302      -2.71558313       0.00000000
