10
Lattice="16.28999089631971 0.0 0.0 0.0 16.28999089631971 0.0 0.0 0.0 34.24959146834617" Properties=species:S:1:pos:R:3:initial_magmoms:R:1 pbc="T T T"
Si      -1.35785295      -1.35702216      -1.35765456       0.00000000
Si       1.35762489       1.35767753      -1.35748332       0.00000000
Si       1.35757602      -1.35728280       1.36107953       0.00000000
Si      -1.36130643       1.35995163       1.36344275       0.00000000
Si       0.00008145      -2.71428867      -2.71482963       0.00000000
Si       2.71453302       0.00042354      -2.71462414       0.00000000
Si       0.00013032       2.71511199      -2.71520638       0.00000000
Si       2.71557558      -2.71489140      -0.00020550       0.00000000
Si      -2.71528236       0.00065160      -2.71548038       0.00000000
Si      -2.71489140      -2.71625976       0.00037675       0.00000000
