10
Lattice="16.28999089631971 0.0 0.0 0.0 16.28999089631971 0.0 0.0 0.0 34.24959146834617" Properties=species:S:1:pos:R:3:initial_magmoms:R:1 pbc="T T T"
Si      -1.33444422       1.33766964      -1.41272794       0.00000000
Si      -1.87336629      -0.67543227       1.27151679       0.00000000
Si       1.34746386      -1.38688173      -1.37858108       0.00000000
Si       1.48191174       1.48411674       1.16506900       0.00000000
Si       2.21575670      -0.28505871       2.35226326       0.00000000
Si      -2.60400537       2.76316537      -0.08141132       0.00000000
Si       2.62087271      -2.82501180       0.02298149       0.00000000
Si       0.00431685       2.69356525      -2.75688816       0.00000000
Si      -2.73220767      -2.73000852       0.08147982       0.00000000
Si      -2.71301805      -0.01708821      -2.75332620       0.00000000
