10
Lattice="16.28999089631971 0.0 0.0 0.0 16.28999089631971 0.0 0.0 0.0 34.24959146834617" Properties=species:S:1:pos:R:3:initial_magmoms:R:1 pbc="T T T"
Si       2.17645803       0.61001163      -0.55282296       0.00000000
Si      -0.28755108      -0.02036250       2.34808480       0.00000000
Si      -0.83606796      -2.17686528      -0.51720337       0.00000000
Si      -1.28270718       1.68653628      -1.15167741       0.00000000
Si      -2.91361311      -1.21020039       0.04305176       0.00000000
Si      -2.57724090      -0.24076620       2.14984806       0.00000000
Si       2.94704249      -1.20562290      -1.84413603       0.00000000
Si      -1.13257854       0.94024251      -3.45352524       0.00000000
Si       2.14596315       2.88996003      -1.25589897       0.00000000
Si       3.52094408       0.77411709       1.31302732       0.00000000
