10
Lattice="16.28999089631971 0.0 0.0 0.0 16.28999089631971 0.0 0.0 0.0 34.24959146834617" Properties=species:S:1:pos:R:3:initial_magmoms:R:1 pbc="T T T"
Si       1.21210632       2.02504248      -0.11168798       0.00000000
Si      -2.34655821       0.38292903      -0.13110751       0.00000000
Si       1.28270718      -1.68653628       1.15167741       0.00000000
Si       0.15012864      -0.74629377      -2.30184783       0.00000000
Si      -2.81657358      -1.88279820      -0.54912401       0.00000000
Si      -1.63090593      -2.89673667       1.19472917       0.00000000
Si      -0.31434813       1.26366417      -3.36814096       0.00000000
Si       3.42867033       1.20342375      -0.10422157       0.00000000
Si       3.45916521      -1.07652465       0.59885444       0.00000000
Si      -2.49313563       1.52697573      -2.36483286       0.00000000
