10
Lattice="16.28999089631971 0.0 0.0 0.0 16.28999089631971 0.0 0.0 0.0 34.24959146834617" Properties=species:S:1:pos:R:3:initial_magmoms:R:1 pbc="T T T"
Si      -0.42401241       0.08397495      -2.31630117       0.00000000
Si       0.30735972      -2.29420215       0.55624793       0.00000000
Si      -2.32829712       0.44184996       0.69211613       0.00000000
Si       1.58796372       1.88281449       0.71732384       0.00000000
Si       1.75132391      -1.70401545       2.30150533       0.00000000
Si       0.98073945       0.11161908       3.59281840       0.00000000
Si      -2.79277389       2.45180790      -0.37417700       0.00000000
Si      -2.16067302       1.78735509      -2.51669564       0.00000000
Si       0.95024457       2.39156748       2.88974240       0.00000000
Si       3.66511058       0.47434851      -1.23555470       0.00000000
