10
Lattice="16.28999089631971 0.0 0.0 0.0 16.28999089631971 0.0 0.0 0.0 34.24959146834617" Properties=species:S:1:pos:R:3:initial_magmoms:R:1 pbc="T T T"
Si       1.27632150      -1.83446577       0.74438104       0.00000000
Si      -1.62517185      -0.52760052       1.69648596       0.00000000
Si      -0.44426088      -0.60691653      -2.30924575       0.00000000
Si       0.28562886       2.38669677       0.65224958       0.00000000
Si      -2.64887292       0.08783568      -2.34811905       0.00000000
Si      -2.78518275       1.44089937       1.65586592       0.00000000
Si      -0.00553860      -3.63936519      -0.05914908       0.00000000
Si       2.26836621       2.14224903       1.89770242       0.00000000
Si       1.36273995      -1.69961715       3.15901283       0.00000000
Si      -3.57953921       1.27184175      -0.55220647       0.00000000
