10
Lattice="16.28999089631971 0.0 0.0 0.0 16.28999089631971 0.0 0.0 0.0 34.24959146834617" Properties=species:S:1:pos:R:3:initial_magmoms:R:1 pbc="T T T"
Si      -1.47188295      -1.28684484       1.19490041       0.00000000
Si       2.05398981      -0.00539199       1.20387381       0.00000000
Si       0.21574476      -1.04143599      -2.14135415       0.00000000
Si      -1.35946566       1.90816173       0.52717001       0.00000000
Si       1.10108997       0.87477300       3.19281720       0.00000000
Si       0.41065461       3.45929553       0.37982818       0.00000000
Si       3.24871470       1.42291521      -0.26129028       0.00000000
Si      -0.68600448       0.66112965      -3.50561889       0.00000000
Si       2.51535519      -1.74376305      -2.26133054       0.00000000
Si      -1.29940443      -0.60219243       3.57278238       0.00000000
