10
Lattice="16.28999089631971 0.0 0.0 0.0 16.28999089631971 0.0 0.0 0.0 34.24959146834617" Properties=species:S:1:pos:R:3:initial_magmoms:R:1 pbc="T T T"
Si      -0.90174924       1.70256564      -1.36426474       0.00000000
Si      -0.21574476       1.04143599       2.14135415       0.00000000
Si       2.29961043      -0.70232706      -0.11997639       0.00000000
Si      -1.06236864      -2.16191106      -0.03746907       0.00000000
Si       2.17394937      -2.43468711       1.53945150       0.00000000
Si       0.91144179       3.25726695      -1.40789874       0.00000000
Si      -0.07431498      -3.23825652       1.80474898       0.00000000
Si      -1.68762771      -0.24540885       3.33625457       0.00000000
Si       2.70518256      -1.61886762      -2.26581724       0.00000000
Si      -3.32607835      -2.01572460       0.48411825       0.00000000
