10
Lattice="16.28999089631971 0.0 0.0 0.0 16.28999089631971 0.0 0.0 0.0 34.24959146834617" Properties=species:S:1:pos:R:3:initial_magmoms:R:1 pbc="T T T"
Si      -1.35349049       1.35729909      -1.36152477       0.00000000
Si      -1.34849923      -1.35040516       1.37731384       0.00000000
Si       1.36080144      -1.35913171      -1.36046303       0.00000000
Si       1.35540945       1.36497168       1.38680098       0.00000000
Si       0.25454754      -2.57773237       2.72575526       0.00000000
Si      -2.71137864       2.71681362      -0.00130149       0.00000000
Si      -2.70911564      -2.72035828      -0.00297972       0.00000000
Si      -2.71141234      -0.00091224      -2.71815185       0.00000000
Si       0.00257382       2.71461447      -2.71804910       0.00000000
Si       2.71857294       2.71513575       0.00085624       0.00000000
