10
Lattice="16.28999089631971 0.0 0.0 0.0 16.28999089631971 0.0 0.0 0.0 34.24959146834617" Properties=species:S:1:pos:R:3:initial_magmoms:R:1 pbc="T T T"
Si       0.94076868       1.75899324       1.23564135       0.00000000
Si      -1.78239220      -0.92266560       1.27413107       0.00000000
Si       1.78940926      -1.78341291      -0.24150124       0.00000000
Si      -0.44050174      -2.26082394       2.64479021       0.00000000
Si       2.29060369       0.46591029       2.64286881       0.00000000
Si      -3.26991355      -1.94975010      -0.26068102       0.00000000
Si       0.61825763      -2.95617888      -2.33853639       0.00000000
Si       0.86908290      -3.58148682       1.17809516       0.00000000
Si       3.56319478      -0.92975175       1.21819118       0.00000000
Si       1.94251897       3.39078698      -0.21855400       0.00000000
