10
Lattice="10.86 0.0 0.0 0.0 10.86 0.0 0.0 0.0 10.86" Properties=species:S:1:pos:R:3:initial_magmoms:R:1 pbc="T T T"
Si       1.21933908      -1.77188502       0.12449904       0.00000000
Si      -1.68151896       1.78870716       0.54298914       0.00000000
Si      -1.52448336      -0.78218064      -2.01495354       0.00000000
Si       0.99341850       1.69631028      -1.77037548       0.00000000
Si      -1.52186610      -0.93096264       3.16097676       0.00000000
Si      -3.06778710       0.60887676       2.02317456       0.00000000
Si      -3.06778710      -2.10612324      -0.69182544       0.00000000
Si       1.13900766      -3.07856022      -2.03310060       0.00000000
Si      -0.97923534      -3.57295086       1.14523044       0.00000000
Si      -0.35278710       3.32387676       2.02317456       0.00000000
