10
Lattice="10.86 0.0 0.0 0.0 10.86 0.0 0.0 0.0 10.86" Properties=species:S:1:pos:R:3:initial_magmoms:R:1 pbc="T T T"
Si       1.43136972       1.42277946       1.28277234       0.00000000
Si      -1.28363028       1.42277946      -1.43222766       0.00000000
Si       1.43136972      -1.29222054      -1.43222766       0.00000000
Si      -0.43127232      -2.43535500       2.24921460       0.00000000
Si      -2.42650410      -0.95798232       2.09909682       0.00000000
Si      -2.50683552      -2.26465752      -0.05850282       0.00000000
Si      -2.65242468       2.51021298       0.20422230       0.00000000
Si       2.78886972       0.06527946       2.64027234       0.00000000
Si      -2.64113028       0.06527946      -2.78972766       0.00000000
Si       2.78886972      -2.64972054      -0.07472766       0.00000000
