10
Lattice="10.86 0.0 0.0 0.0 10.86 0.0 0.0 0.0 10.86" Properties=species:S:1:pos:R:3:initial_magmoms:R:1 pbc="T T T"
Si      -1.54592100       1.53983940      -1.13780220       0.00000000
Si       1.16907900       1.53983940       1.57719780       0.00000000
Si      -1.54592100      -1.17516060       1.57719780       0.00000000
Si       0.54263076      -2.64198822      -2.01574632       0.00000000
Si       2.25680574      -2.76206724      -0.13775910       0.00000000
Si       1.52186610       0.93096264      -3.16097676       0.00000000
Si      -0.15965286       2.71966980      -2.61798762       0.00000000
Si       2.52707856       2.82038544       0.11291142       0.00000000
Si      -2.90342100       0.18233940      -2.49530220       0.00000000
Si      -2.90342100      -2.53266060       0.21969780       0.00000000
