10
Lattice="10.86 0.0 0.0 0.0 10.86 0.0 0.0 0.0 10.86" Properties=species:S:1:pos:R:3:initial_magmoms:R:1 pbc="T T T"
Si       1.33990680      -1.33990680       1.20188706       0.00000000
Si       1.33990680       1.37509320      -1.51311294       0.00000000
Si      -1.37509320      -1.33990680      -1.51311294       0.00000000
Si      -1.51536096       1.51536096       1.22682162       0.00000000
Si       2.69740680       0.01759320       2.55938706       0.00000000
Si      -0.01759320      -2.69740680       2.55938706       0.00000000
Si       2.69740680      -2.69740680      -0.15561294       0.00000000
Si       2.69740680       2.73259320      -0.15561294       0.00000000
Si      -2.73259320      -2.69740680      -0.15561294       0.00000000
Si       2.69740680       0.01759320      -2.87061294       0.00000000
