10
Lattice="10.86 0.0 0.0 0.0 10.86 0.0 0.0 0.0 10.86" Properties=species:S:1:pos:R:3:initial_magmoms:R:1 pbc="T T T"
Si      -1.34710698       1.34710698      -1.28775708       0.00000000
Si       1.51536096      -1.51536096      -1.22682162       0.00000000
Si      -2.57473224       2.57473224      -0.02493456       0.00000000
Si       0.14026776       2.57473224       2.69006544       0.00000000
Si      -2.57473224      -0.14026776       2.69006544       0.00000000
Si       0.14026776       2.57473224      -2.73993456       0.00000000
Si      -2.57473224      -0.14026776      -2.73993456       0.00000000
Si       2.85526776       2.57473224      -0.02493456       0.00000000
Si      -2.57473224      -2.85526776      -0.02493456       0.00000000
Si       2.85526776      -0.14026776       2.69006544       0.00000000
