10
Lattice="10.86 0.0 0.0 0.0 10.86 0.0 0.0 0.0 10.86" Properties=species:S:1:pos:R:3:initial_magmoms:R:1 pbc="T T T"
Si      -1.22169570       1.38344454      -1.27199922       0.00000000
Si      -1.22169570      -1.33155546       1.44300078       0.00000000
Si       1.49330430      -1.33155546      -1.27199922       0.00000000
Si       2.60801814       2.47127988       0.05393076       0.00000000
Si      -2.57919570       0.02594454      -2.62949922       0.00000000
Si      -2.57919570      -2.68905546       0.08550078       0.00000000
Si       0.13580430      -2.68905546      -2.62949922       0.00000000
Si      -2.42764440       2.88008286       0.15089970       0.00000000
Si       0.13580430       2.74094454      -2.62949922       0.00000000
Si       2.72917230      -0.20786040       2.65750716       0.00000000
