10
Lattice="10.86 0.0 0.0 0.0 10.86 0.0 0.0 0.0 10.86" Properties=species:S:1:pos:R:3:initial_magmoms:R:1 pbc="T T T"
Si      -1.35750000      -1.35750000       1.35750000       0.00000000
Si       1.35750000      -1.35750000      -1.35750000       0.00000000
Si       1.35750000       1.35750000       1.35750000       0.00000000
Si      -1.35750000       1.35750000      -1.35750000       0.00000000
Si      -0.06204318      -2.66199234      -2.58403926       0.00000000
Si       2.30829300       2.95469106      -0.00948078       0.00000000
Si       0.00180276       3.67882500      -0.81570546       0.00000000
Si      -0.05048814      -2.82215562       2.53759104       0.00000000
Si      -2.40274242      -2.95370280      -0.07189320       0.00000000
Si      -2.71500000       0.00000000       2.71500000       0.00000000
