10
Lattice="10.86 0.0 0.0 0.0 10.86 0.0 0.0 0.0 10.86" Properties=species:S:1:pos:R:3:initial_magmoms:R:1 pbc="T T T"
Si       1.30455750       1.37392032       1.29266580       0.00000000
Si      -1.41044250      -1.34107968       1.29266580       0.00000000
Si       1.30455750      -1.34107968      -1.42233420       0.00000000
Si      -1.42478856       0.90661452      -1.66816116       0.00000000
Si       2.25535050       0.25611138      -2.78931498       0.00000000
Si      -2.68817580       2.51982408      -0.43865712       0.00000000
Si      -0.05113974       0.98024532      -3.59553966       0.00000000
Si       2.66205750       0.01642032       2.65016580       0.00000000
Si       2.56724970       2.75948256      -0.13822608       0.00000000
Si      -0.05294250      -2.69857968       2.65016580       0.00000000
