10
Lattice="10.86 0.0 0.0 0.0 10.86 0.0 0.0 0.0 10.86" Properties=species:S:1:pos:R:3:initial_magmoms:R:1 pbc="T T T"
Si      -1.30701186       1.46465562      -1.18009104       0.00000000
Si      -1.30701186      -1.25034438       1.53490896       0.00000000
Si       1.40798814       1.46465562       1.53490896       0.00000000
Si      -2.35225428      -0.13154718      -2.60948424       0.00000000
Si       2.67068034      -2.57978214       0.10401708       0.00000000
Si       0.05048814       2.82215562      -2.53759104       0.00000000
Si      -2.58474516      -2.81944062      -0.19641396       0.00000000
Si       2.91147912      -0.01229352      -2.52965238       0.00000000
Si      -2.66451186       2.82215562       0.17740896       0.00000000
Si       0.05048814      -2.60784438       2.89240896       0.00000000
