10
Lattice="16.28999089631971 0.0 0.0 0.0 16.28999089631971 0.0 0.0 0.0 34.32429715621058" Properties=species:S:1:pos:R:3:initial_magmoms:R:1 pbc="T T T"
Si      -1.38182110       1.25312943       1.49596011       0.00000000
Si      -1.86923419      -0.97550873      -1.14617164       0.00000000
Si       1.63054918       1.14170583      -1.36725907       0.00000000
Si       1.29613177      -1.47131510       1.47053952       0.00000000
Si       3.35219041      -0.99893538      -1.26332504       0.00000000
Si      -3.54956398       0.69158055      -0.98918904       0.00000000
Si      -2.73755635       2.57087640       0.14975013       0.00000000
Si       2.77171255       2.64958968       0.11846008       0.00000000
Si      -0.04871850       2.60604651       2.85904050       0.00000000
Si      -2.76402760      -2.75485307       0.15537588       0.00000000
