10
Lattice="16.28999089631971 0.0 0.0 0.0 16.28999089631971 0.0 0.0 0.0 34.32429715621058" Properties=species:S:1:pos:R:3:initial_magmoms:R:1 pbc="T T T"
Si       1.35034326       1.35657256      -1.33528799       0.00000000
Si       1.35744570      -1.35672954       1.35742374       0.00000000
Si      -1.35977517       1.35614902       1.35824752       0.00000000
Si      -1.37135736      -1.36619410      -1.38671611       0.00000000
Si       2.50791066      -0.04550123      -2.76110636       0.00000000
Si       2.71350675       2.71279651       0.00003432       0.00000000
Si      -2.71620763       2.71116751       0.00178486       0.00000000
Si      -2.71580853      -2.71254631       0.00116703       0.00000000
Si       2.71342530      -0.00001303       2.71563694       0.00000000
Si       2.71298547      -2.71626043       0.00003432       0.00000000
