10
Lattice="16.28999089631971 0.0 0.0 0.0 16.28999089631971 0.0 0.0 0.0 34.32429715621058" Properties=species:S:1:pos:R:3:initial_magmoms:R:1 pbc="T T T"
Si      -1.20073168      -1.01867253      -1.77370905       0.00000000
Si       2.38354791      -0.22354134       0.06181809       0.00000000
Si      -0.74254601      -1.66504344       1.58873531       0.00000000
Si      -0.23526344       2.60740721      -0.00116703       0.00000000
Si      -0.59877088       1.36923852       2.36384702       0.00000000
Si       0.56043627      -0.57828867       3.17695575       0.00000000
Si       2.73888168      -0.76308243       2.33134189       0.00000000
Si       3.26065038       1.81195022      -0.72942605       0.00000000
Si      -0.29668651      -3.74356599       0.66606336       0.00000000
Si      -2.99838205      -1.29141600       1.97371684       0.00000000
