10
Lattice="16.28999089631971 0.0 0.0 0.0 16.28999089631971 0.0 0.0 0.0 34.32429715621058" Properties=species:S:1:pos:R:3:initial_magmoms:R:1 pbc="T T T"
Si       2.19294351      -0.09337428      -0.75383064       0.00000000
Si      -0.69282999       2.22187455      -0.00954216       0.00000000
Si      -1.25013370      -1.05544539      -1.68298988       0.00000000
Si      -0.29939391      -1.21200858       2.02407061       0.00000000
Si       0.14923269      -3.45549996       0.90372492       0.00000000
Si      -0.44430975      -3.23690445      -1.45535101       0.00000000
Si       3.38340042       1.46974896       0.53614582       0.00000000
Si      -3.02665661       2.13177456       0.43904233       0.00000000
Si      -0.22001274       3.06025569      -2.18254598       0.00000000
Si      -2.61675134      -1.05467976       2.51123563       0.00000000
