10
Lattice="16.28999089631971 0.0 0.0 0.0 16.28999089631971 0.0 0.0 0.0 34.32429715621058" Properties=species:S:1:pos:R:3:initial_magmoms:R:1 pbc="T T T"
Si       1.89693792       0.87504993       1.07531973       0.00000000
Si       0.31084578      -1.19061981      -2.02330247       0.00000000
Si      -0.94882734      -1.89875588       1.07627738       0.00000000
Si      -1.62934209       1.91138715      -0.24248829       0.00000000
Si      -2.10639474      -0.49668210       2.50209575       0.00000000
Si       0.60646041       2.24723808       2.47516146       0.00000000
Si      -0.23245830       0.45527292      -3.55646671       0.00000000
Si      -3.35251458       0.90145602       1.09858819       0.00000000
Si      -1.06613163      -3.10896051      -1.93584411       0.00000000
Si      -0.71524503       3.67640865       1.02293739       0.00000000
