10
Lattice="16.28999089631971 0.0 0.0 0.0 16.28999089631971 0.0 0.0 0.0 34.32429715621058" Properties=species:S:1:pos:R:3:initial_magmoms:R:1 pbc="T T T"
Si      -1.15756740       1.40207378       1.42581837       0.00000000
Si       0.94882734       1.89875588      -1.07627738       0.00000000
Si      -1.82320938      -0.84831315      -1.35947431       0.00000000
Si       1.55142702      -1.31468300       1.37186741       0.00000000
Si      -0.11730429      -1.21020463      -3.01212150       0.00000000
Si       1.25967312       0.70813607      -3.09957985       0.00000000
Si      -2.40368724       2.80021190       0.02231081       0.00000000
Si      -2.50791066       0.04550123       2.76110636       0.00000000
Si      -2.56841172      -2.76113612      -0.06819555       0.00000000
Si       0.20507481      -2.67075920       2.76114068       0.00000000
