10
Lattice="16.28999089631971 0.0 0.0 0.0 16.28999089631971 0.0 0.0 0.0 34.32429715621058" Properties=species:S:1:pos:R:3:initial_magmoms:R:1 pbc="T T T"
Si       1.35597960       1.35671651       1.35821320       0.00000000
Si      -1.35744570       1.35672954      -1.35742374       0.00000000
Si       1.35553977      -1.35953089      -1.35738941       0.00000000
Si      -1.35861858      -1.35896074       1.35814455       0.00000000
Si      -0.00710244       2.71330209      -2.69271172       0.00000000
Si       2.71344159       2.71421433       0.00089243       0.00000000
Si      -0.00087966       2.71323693       2.71495045       0.00000000
Si       2.71399545      -0.00107491       2.71471018       0.00000000
Si       2.71313208      -2.71625983       0.00099541       0.00000000
Si      -2.71722087       2.71287855       0.00082378       0.00000000
