10
Lattice="16.28999089631971 0.0 0.0 0.0 16.28999089631971 0.0 0.0 0.0 34.32429715621058" Properties=species:S:1:pos:R:3:initial_magmoms:R:1 pbc="T T T"
Si      -0.83316834      -1.90848264       1.09957947       0.00000000
Si       1.75870098       0.98183088       1.31304240       0.00000000
Si       1.31698134      -1.34843733      -1.49530452       0.00000000
Si      -1.39619961       1.36379880      -1.45651804       0.00000000
Si       3.34550988      -0.94842009       1.17063081       0.00000000
Si       2.61847089       2.61853605      -0.17635834       0.00000000
Si       2.61571788      -2.77533449      -0.14738861       0.00000000
Si      -2.69935074      -2.73886118      -0.15634726       0.00000000
Si       2.68107336      -0.00026064      -2.85715609       0.00000000
Si      -2.75947713       2.79855684       0.00319216       0.00000000
