10
Lattice="16.28999089631971 0.0 0.0 0.0 16.28999089631971 0.0 0.0 0.0 34.32429715621058" Properties=species:S:1:pos:R:3:initial_magmoms:R:1 pbc="T T T"
Si      -1.08439272      -1.52794891      -1.38584427       0.00000000
Si      -0.40189059      -0.76700651       2.21707624       0.00000000
Si       2.31192567       0.38246314      -0.43845882       0.00000000
Si      -1.41330411       1.70691018      -0.89888520       0.00000000
Si      -0.44782839      -0.67460800      -3.51494729       0.00000000
Si      -3.29962095      -1.44614053      -0.51977312       0.00000000
Si      -3.55382640       0.88400454      -0.22379454       0.00000000
Si      -0.72075105       1.63521789      -3.23867087       0.00000000
Si      -0.92975175       3.56605530       0.40262423       0.00000000
Si       0.30379221      -3.03664726       2.19891868       0.00000000
