10
Lattice="16.28999089631971 0.0 0.0 0.0 16.28999089631971 0.0 0.0 0.0 34.32429715621058" Properties=species:S:1:pos:R:3:initial_magmoms:R:1 pbc="T T T"
Si       1.24611984      -1.39813812       1.40350757       0.00000000
Si      -1.45645632       1.31905017       1.36787206       0.00000000
Si      -1.14116337      -1.50788385      -1.48571915       0.00000000
Si       1.72317249       1.00993113      -1.34107648       0.00000000
Si       3.35251458      -0.90145602      -1.09858819       0.00000000
Si       2.40368724      -2.80021190      -0.02231081       0.00000000
Si       2.60928333      -0.04191417       2.73882988       0.00000000
Si       2.63726955       2.77495263      -0.07565079       0.00000000
Si      -0.10682982       2.67589314       2.73714798       0.00000000
Si      -2.77171255      -2.64958968      -0.11846008       0.00000000
