10
Lattice="16.28999089631971 0.0 0.0 0.0 16.28999089631971 0.0 0.0 0.0 34.32429715621058" Properties=species:S:1:pos:R:3:initial_magmoms:R:1 pbc="T T T"
Si       1.67778855       1.65258792       0.41515261       0.00000000
Si       1.38885282      -1.38772881      -1.43818885       0.00000000
Si      -1.34921925       1.79247015      -1.09096407       0.00000000
Si      -0.28709496      -1.19518101       2.22318597       0.00000000
Si       2.01805407      -1.42451163       2.19466246       0.00000000
Si       2.00184552      -2.75802732       0.31362128       0.00000000
Si      -2.51805933       0.14775030      -2.59714940       0.00000000
Si       2.71909422       0.80207073       2.29423730       0.00000000
Si      -0.94206699      -3.52575873       1.14488757       0.00000000
Si       0.15449436       2.78513388      -2.71261640       0.00000000
