10
Lattice="16.28999089631971 0.0 0.0 0.0 16.28999089631971 0.0 0.0 0.0 34.32429715621058" Properties=species:S:1:pos:R:3:initial_magmoms:R:1 pbc="T T T"
Si      -0.30503025      -2.05682427      -1.12961325       0.00000000
Si       2.32213950       0.38235888      -0.27960588       0.00000000
Si      -0.99043200       2.08002123      -0.76587847       0.00000000
Si       0.09899433      -0.42352371       2.39381215       0.00000000
Si       2.29508181       2.61073314       0.54874285       0.00000000
Si       0.90153747       3.35473002      -1.26189917       0.00000000
Si       0.86815926      -1.76345766      -3.18907223       0.00000000
Si       3.40407243      -1.32216156       0.88982358       0.00000000
Si      -2.57386887      -2.39518386      -1.61935260       0.00000000
Si       2.30641965      -1.13712345       2.96071255       0.00000000
