10
Lattice="16.28999089631971 0.0 0.0 0.0 16.28999089631971 0.0 0.0 0.0 34.32429715621058" Properties=species:S:1:pos:R:3:initial_magmoms:R:1 pbc="T T T"
Si       0.44271333      -1.91962989      -1.24919917       0.00000000
Si       1.62585603       1.46626290      -0.93935357       0.00000000
Si      -2.21014575       0.07732863      -0.95503978       0.00000000
Si       0.43528509      -0.66472974       2.30728054       0.00000000
Si      -1.46533437      -3.19916052      -0.52104312       0.00000000
Si       3.42161676       1.00116711       0.52564258       0.00000000
Si      -1.67433507      -1.26832311       3.12025198       0.00000000
Si      -2.08645578       1.48286241      -2.80158502       0.00000000
Si       2.65013865      -2.63322963      -0.68229876       0.00000000
Si       0.75725694       1.28451537       3.52795621       0.00000000
