10
Lattice="16.28999089631971 0.0 0.0 0.0 16.28999089631971 0.0 0.0 0.0 34.32429715621058" Properties=species:S:1:pos:R:3:initial_magmoms:R:1 pbc="T T T"
Si       1.33913574       1.35962856      -1.37173698       0.00000000
Si      -1.49301108       1.18063404       1.40396751       0.00000000
Si      -1.37503890      -1.35433431      -1.37335022       0.00000000
Si       1.38328164      -1.24504470       1.51480073       0.00000000
Si      -0.46475370      -2.13268680       2.79492611       0.00000000
Si       2.68338654      -2.70555723       0.00521730       0.00000000
Si      -2.36294595      -0.65541186       2.92460337       0.00000000
Si       2.70308115       2.71660185      -0.00837513       0.00000000
Si       2.69724933       0.00232947      -2.73012180       0.00000000
Si      -2.74212176       2.69534340       0.00257432       0.00000000
