10
Lattice="16.28999089631971 0.0 0.0 0.0 16.28999089631971 0.0 0.0 0.0 34.32429715621058" Properties=species:S:1:pos:R:3:initial_magmoms:R:1 pbc="T T T"
Si       1.50371361       0.99266373      -1.62165233       0.00000000
Si       1.34921925      -1.79247015       1.09096407       0.00000000
Si      -1.16884008      -1.64471985      -1.50618533       0.00000000
Si       0.02332728       1.95352938       1.83329606       0.00000000
Si       3.02700780      -0.13988223       1.50611668       0.00000000
Si       2.40458319       2.10906630       1.68350474       0.00000000
Si       0.15095943       2.31692670      -3.02936119       0.00000000
Si       3.32524512       1.91107764      -0.46770313       0.00000000
Si      -3.01687542      -2.53236195      -0.22605995       0.00000000
Si      -2.55212172      -0.39967515      -3.02098605       0.00000000
