10
Lattice="16.28999089631971 0.0 0.0 0.0 16.28999089631971 0.0 0.0 0.0 34.32429715621058" Properties=species:S:1:pos:R:3:initial_magmoms:R:1 pbc="T T T"
Si      -2.17929249      -0.87770520      -0.32031452       0.00000000
Si      -0.22175577       2.04558417       1.24151052       0.00000000
Si       1.47675366      -1.29155265       1.41223967       0.00000000
Si       0.49306572       0.50842719      -2.36394999       0.00000000
Si      -2.88324855      -0.87508251       1.93894631       0.00000000
Si       0.66199302      -0.81479322       3.58338998       0.00000000
Si      -0.35313462       2.73970107      -2.58678345       0.00000000
Si      -2.39412501       2.86563906       0.75671388       0.00000000
Si       0.01394424       1.48007682       3.55242944       0.00000000
Si       2.87432163       0.66396411      -2.51374131       0.00000000
