10
Lattice="16.28999089631971 0.0 0.0 0.0 16.28999089631971 0.0 0.0 0.0 34.32429715621058" Properties=species:S:1:pos:R:3:initial_magmoms:R:1 pbc="T T T"
Si      -1.78058187       0.73564011      -1.30947267       0.00000000
Si       0.25420545      -2.33014508      -0.29597858       0.00000000
Si       2.14052229       0.82290564      -0.67509065       0.00000000
Si      -0.33952433       0.24071733       2.36885837       0.00000000
Si       2.46943368      -2.41195346      -1.16204973       0.00000000
Si       3.55382640      -0.88400454       0.22379454       0.00000000
Si      -0.21861180      -3.16852622       1.87702524       0.00000000
Si       0.91230516      -1.55592795       3.24622222       0.00000000
Si      -2.37277601       2.87762850      -0.62521742       0.00000000
Si       2.62407465       2.68205076       0.62641877       0.00000000
