10
Lattice="16.28999089631971 0.0 0.0 0.0 16.28999089631971 0.0 0.0 0.0 34.32429715621058" Properties=species:S:1:pos:R:3:initial_magmoms:R:1 pbc="T T T"
Si       1.69399710       0.20412999       1.61156098       0.00000000
Si      -0.96049098       2.17655577       0.49701610       0.00000000
Si      -0.73562382      -2.33179947      -0.07400323       0.00000000
Si       0.94778478       0.26974611      -2.24518786       0.00000000
Si      -2.11079304      -1.71628182      -1.98600494       0.00000000
Si      -0.82114632      -2.21140008       2.61808723       0.00000000
Si      -0.72265698       3.01135311      -1.69342447       0.00000000
Si      -1.11974202      -0.14599098      -3.40112786       0.00000000
Si       1.42801398      -3.39477084       0.39840234       0.00000000
Si      -3.59774424      -0.96697440      -0.20450428       0.00000000
