10
Lattice="16.28999089631971 0.0 0.0 0.0 16.28999089631971 0.0 0.0 0.0 34.32429715621058" Properties=species:S:1:pos:R:3:initial_magmoms:R:1 pbc="T T T"
Si      -1.37516922       0.61551765      -1.91200172       0.00000000
Si       0.73562382       2.33179947       0.07400323       0.00000000
Si       2.16363780      -1.06297137       0.47240557       0.00000000
Si      -1.72501326      -1.78448805       0.38220126       0.00000000
Si      -0.08552250       0.12039939       2.69209045       0.00000000
Si      -2.86212042       1.36482507      -0.13050105       0.00000000
Si      -2.26857798       1.14622956       2.22857489       0.00000000
Si       1.84166595      -3.01221648      -0.74827010       0.00000000
Si      -0.26795421      -3.61580985       0.06470134       0.00000000
Si       1.68340860       2.60154558      -2.17118463       0.00000000
