10
Lattice="16.28999089631971 0.0 0.0 0.0 16.28999089631971 0.0 0.0 0.0 34.32429715621058" Properties=species:S:1:pos:R:3:initial_magmoms:R:1 pbc="T T T"
Si      -1.10490183      -1.68495615       1.28475028       0.00000000
Si       1.72111995       1.03198779       1.30628878       0.00000000
Si       1.16636400      -1.40085855      -1.63720124       0.00000000
Si      -1.89193689       1.66467510      -0.13994024       0.00000000
Si       0.33414048       2.37939885       2.75499118       0.00000000
Si      -2.38988961      -0.34849197       2.77558920       0.00000000
Si      -3.00832317       0.39486960      -2.12069356       0.00000000
Si      -0.37664109      -2.87445195      -2.77752368       0.00000000
Si      -1.09714779       3.63581397       1.30394443       0.00000000
Si      -3.18503709      -2.48927490       0.19075502       0.00000000
