10
Lattice="16.28999089631971 0.0 0.0 0.0 16.28999089631971 0.0 0.0 0.0 34.32429715621058" Properties=species:S:1:pos:R:3:initial_magmoms:R:1 pbc="T T T"
Si      -1.35597960       1.35394987       1.35285860       0.00000000
Si       1.35870003      -1.35728965       1.35536428       0.00000000
Si      -1.35630540      -1.35777186      -1.35872806       0.00000000
Si       1.35832536       1.35691465      -1.35817887       0.00000000
Si       0.01001835       2.71203088       2.70942423       0.00000000
Si      -2.71278999       2.71411600      -0.00020595       0.00000000
Si      -2.71480995      -2.71355629      -0.00120135       0.00000000
Si       2.71562445       2.71357843      -0.00089243       0.00000000
Si      -2.71432125       0.00001955      -2.71522504       0.00000000
Si       0.00070047       2.71453954      -2.71529369       0.00000000
