10
Lattice="16.28999089631971 0.0 0.0 0.0 16.28999089631971 0.0 0.0 0.0 34.32429715621058" Properties=species:S:1:pos:R:3:initial_magmoms:R:1 pbc="T T T"
Si       1.34325711       1.34452773      -1.36981138       0.00000000
Si       1.35397593      -1.35791811       1.35577617       0.00000000
Si      -1.36029645       1.35685926       1.35543293       0.00000000
Si      -1.37243250      -1.35480672      -1.38398733       0.00000000
Si       2.71199178      -0.00105885       2.71333721       0.00000000
Si       2.71026504      -2.71626953      -0.00521730       0.00000000
Si       2.71125873       2.71531494      -0.00027459       0.00000000
Si      -0.00311139       2.71394658       2.71326856       0.00000000
Si      -0.00255753      -2.71644221       2.71289099       0.00000000
Si      -0.07353306       2.62425384      -2.80272116       0.00000000
