10
Lattice="16.28999089631971 0.0 0.0 0.0 16.28999089631971 0.0 0.0 0.0 34.32429715621058" Properties=species:S:1:pos:R:3:initial_magmoms:R:1 pbc="T T T"
Si      -1.36334268      -1.32685308      -1.36143282       0.00000000
Si      -1.35523026       1.35865116       1.35910563       0.00000000
Si       1.36000323      -1.35518139       1.35862509       0.00000000
Si       1.36018242       1.36568844      -1.38296446       0.00000000
Si      -2.71303434      -2.71454931       0.00082378       0.00000000
Si      -2.71243161       0.00205254       2.71625477       0.00000000
Si       0.00190593      -2.71283886       2.71635775       0.00000000
Si      -2.71210581       2.71950147      -0.00144162       0.00000000
Si       2.72029968      -2.71204065       0.00319216       0.00000000
Si       2.71718829       0.00190593       2.71646072       0.00000000
