10
Lattice="16.28999089631971 0.0 0.0 0.0 16.28999089631971 0.0 0.0 0.0 34.32429715621058" Properties=species:S:1:pos:R:3:initial_magmoms:R:1 pbc="T T T"
Si      -1.59167961      -0.92028726      -1.46496182       0.00000000
Si      -0.16794990      -1.85637582       1.46345155       0.00000000
Si      -1.07051364       1.78584012       1.16603135       0.00000000
Si       2.12897268       0.18277380      -1.11313758       0.00000000
Si       1.45433862      -3.13188282       0.45054098       0.00000000
Si       3.16325736      -1.48142889       0.36191559       0.00000000
Si      -3.26853963      -1.31888727       0.17090077       0.00000000
Si      -3.29559732       0.90948699       0.99924950       0.00000000
Si      -2.15161578       0.61287867      -3.10538955       0.00000000
Si       2.22557238       2.56235184      -1.81654579       0.00000000
