10
Lattice="16.28999089631971 0.0 0.0 0.0 16.28999089631971 0.0 0.0 0.0 34.32429715621058" Properties=species:S:1:pos:R:3:initial_magmoms:R:1 pbc="T T T"
Si      -0.34832907      -0.86198535      -2.17763760       0.00000000
Si      -1.87499529      -0.77004459       1.26220808       0.00000000
Si       2.22498594      -0.55819314       0.67969011       0.00000000
Si      -0.73878408       2.37490281       0.07788187       0.00000000
Si      -0.43158726      -2.09901537       2.56148643       0.00000000
Si       1.43022942       0.36800739      -3.14760846       0.00000000
Si      -2.16130833       0.33319566      -3.09200306       0.00000000
Si      -2.03449068       2.45674377      -2.04418466       0.00000000
Si       1.05616215       3.62789703      -0.68851146       0.00000000
Si       2.77796628      -2.78195733      -0.29985723       0.00000000
