10
Lattice="16.28999089631971 0.0 0.0 0.0 16.28999089631971 0.0 0.0 0.0 34.32429715621058" Properties=species:S:1:pos:R:3:initial_magmoms:R:1 pbc="T T T"
Si       1.44340803      -1.32897078       1.29927835       0.00000000
Si      -1.29300246       1.63499472       1.15875460       0.00000000
Si      -1.83356982      -0.58259556      -1.41419616       0.00000000
Si       1.87499529       0.77004459      -1.26220808       0.00000000
Si       1.13621121       3.14494740      -1.18432621       0.00000000
Si       1.52666622      -0.09194076      -3.43984569       0.00000000
Si      -2.56473018       0.24436629       2.76323588       0.00000000
Si       0.04745277      -2.55699243       2.81561822       0.00000000
Si       2.76708456       0.05426199       2.77736377       0.00000000
Si       0.11414403       2.84879520       2.69609408       0.00000000
