10
Lattice="16.28999089631971 0.0 0.0 0.0 16.28999089631971 0.0 0.0 0.0 34.32429715621058" Properties=species:S:1:pos:R:3:initial_magmoms:R:1 pbc="T T T"
Si       0.94864815       1.61994276      -1.40549979       0.00000000
Si      -1.40714649      -1.21380048      -1.53733949       0.00000000
Si       1.36635633      -1.34105796       1.49783422       0.00000000
Si      -1.35177678       1.35682668       1.50127695       0.00000000
Si      -2.67887421      -2.60442891       0.06714180       0.00000000
Si      -0.67523679       3.50927325      -1.25388928       0.00000000
Si       2.72974788       2.67478542      -0.08858763       0.00000000
Si      -2.66260050       2.74543515       0.05463058       0.00000000
Si       2.65294053      -2.79453321       0.08126968       0.00000000
Si      -0.11414403      -2.84879520      -2.69609408       0.00000000
