10
Lattice="16.28999089631971 0.0 0.0 0.0 16.28999089631971 0.0 0.0 0.0 34.32429715621058" Properties=species:S:1:pos:R:3:initial_magmoms:R:1 pbc="T T T"
Si       1.35641943       1.35570267      -1.35786995       0.00000000
Si      -1.35723393       1.35694071       1.35718347       0.00000000
Si       1.35741312      -1.35746199       1.35684022       0.00000000
Si      -1.35716877      -1.35860229      -1.35735509       0.00000000
Si       0.00006516       2.71267596       2.71453856       0.00000000
Si       2.71433754       0.00032580       2.71426396       0.00000000
Si      -2.71438641       2.71438641      -0.00006865       0.00000000
Si      -2.71437012      -2.71520091      -0.00020595       0.00000000
Si       2.71529865       2.71466334      -0.00037757       0.00000000
Si      -2.71593396      -0.00174303       2.71457288       0.00000000
