10
Lattice="16.28999089631971 0.0 0.0 0.0 16.28999089631971 0.0 0.0 0.0 34.32429715621058" Properties=species:S:1:pos:R:3:initial_magmoms:R:1 pbc="T T T"
Si      -1.35741312       1.35746199      -1.35684022       0.00000000
Si       1.35692442       1.35778779       1.35742374       0.00000000
Si       1.35783666      -1.35788553      -1.35684022       0.00000000
Si      -1.35759231      -1.35897696       1.35745806       0.00000000
Si      -0.00099369       2.71316466      -2.71471018       0.00000000
Si      -2.71254564       0.00084708       2.71543099       0.00000000
Si      -2.71458189      -0.00114030      -2.71419531       0.00000000
Si      -2.71464705       2.71440270       0.00034324       0.00000000
Si       2.71554300      -0.00260640      -2.71409234       0.00000000
Si       0.00065160      -2.71497285      -2.71467585       0.00000000
