10
Lattice="16.28999089631971 0.0 0.0 0.0 16.28999089631971 0.0 0.0 0.0 34.32429715621058" Properties=species:S:1:pos:R:3:initial_magmoms:R:1 pbc="T T T"
Si       1.35845568       1.34833959      -1.35838482       0.00000000
Si       1.26565155      -1.36306575       1.43317750       0.00000000
Si      -1.35578412      -1.36187658      -1.35649698       0.00000000
Si      -1.22258079       1.40639715       1.47807371       0.00000000
Si      -2.24824806      -0.41485743       2.56642913       0.00000000
Si       2.23689393       0.28219167       2.82581799       0.00000000
Si       0.60800796       2.22961230       2.94485472       0.00000000
Si      -0.53268300      -2.43107073       2.81552070       0.00000000
Si      -2.69488728       2.69935074       0.01544594       0.00000000
Si       0.00276930       2.70777267      -2.71642640       0.00000000
