10
Lattice="16.28999089631971 0.0 0.0 0.0 16.28999089631971 0.0 0.0 0.0 34.32429715621058" Properties=species:S:1:pos:R:3:initial_magmoms:R:1 pbc="T T T"
Si      -1.34684091      -1.34602641      -1.36895671       0.00000000
Si       1.36493910       1.37024964      -1.36617644       0.00000000
Si      -1.34905635       1.39885488       1.40280048       0.00000000
Si       1.32928029      -1.40203143       1.41869264       0.00000000
Si       0.47247516       2.31726879       2.55674968       0.00000000
Si       2.18804022       0.30105549       2.80584124       0.00000000
Si      -2.72150514      -2.69904123       0.00868405       0.00000000
Si      -2.70181053       2.72311785      -0.00490838       0.00000000
Si       0.00811242      -2.70585045      -2.72692964       0.00000000
Si      -2.70764235       0.00884547      -2.72665504       0.00000000
