10
Lattice="16.28999089631971 0.0 0.0 0.0 16.28999089631971 0.0 0.0 0.0 34.32429715621058" Properties=species:S:1:pos:R:3:initial_magmoms:R:1 pbc="T T T"
Si      -1.35658233       1.35301482      -1.36051293       0.00000000
Si       1.35578412       1.36187658       1.35649698       0.00000000
Si       1.35769005      -1.35933534      -1.36078752       0.00000000
Si      -1.36493910      -1.37024964       1.36617644       0.00000000
Si       2.62143567      -0.00118917       2.78967449       0.00000000
Si       2.71423980       2.71021617      -0.00188784       0.00000000
Si      -2.71178001      -2.71627605      -0.00278027       0.00000000
Si      -2.71598283       2.71305063      -0.00075513       0.00000000
Si       0.00146610       2.71226871      -2.71793666       0.00000000
Si      -2.71388142      -0.00272043      -2.71786802       0.00000000
