10
Lattice="16.28999089631971 0.0 0.0 0.0 16.28999089631971 0.0 0.0 0.0 34.32429715621058" Properties=species:S:1:pos:R:3:initial_magmoms:R:1 pbc="T T T"
Si      -1.35773000       1.35879777      -1.35570752       0.00000000
Si      -1.35699695      -1.35757602       1.35790428       0.00000000
Si       1.35744063       1.35762489       1.35811022       0.00000000
Si       1.35795376      -1.36065483      -1.35605077       0.00000000
Si      -0.00875435       2.71394658      -2.69326435       0.00000000
Si      -2.71439378       2.71270854       0.00058351       0.00000000
Si       0.00101996       2.71440270       2.71467585       0.00000000
Si      -2.71403540      -0.00037467       2.71525937       0.00000000
Si       2.71476090       0.00068418       2.71467585       0.00000000
Si      -2.71501280      -2.71443528       0.00034324       0.00000000
