10
Lattice="16.28999089631971 0.0 0.0 0.0 16.28999089631971 0.0 0.0 0.0 34.32429715621058" Properties=species:S:1:pos:R:3:initial_magmoms:R:1 pbc="T T T"
Si       1.35658233      -1.35301482       1.36051293       0.00000000
Si      -1.35729909      -1.35573525      -1.35735509       0.00000000
Si       1.35804843       1.35925389      -1.35742374       0.00000000
Si      -1.35940050       1.36003581       1.35975779       0.00000000
Si       2.71427238      -2.71235016      -0.00027459       0.00000000
Si      -0.00006516      -2.71267596      -2.71453856       0.00000000
Si      -2.71445157       0.00171045      -2.71460721       0.00000000
Si       2.71236645       0.00886176       2.71700991       0.00000000
Si       2.71523349       0.00198738      -2.71491613       0.00000000
Si      -2.71599912      -2.71441899       0.00003432       0.00000000
