10
Lattice="16.28999089631971 0.0 0.0 0.0 16.28999089631971 0.0 0.0 0.0 34.32429715621058" Properties=species:S:1:pos:R:3:initial_magmoms:R:1 pbc="T T T"
Si      -1.02566727      -1.82125458       1.08835542       0.00000000
Si       1.22258079      -1.40639715      -1.47807371       0.00000000
Si      -1.47230649       1.29295359      -1.46262777       0.00000000
Si       1.83058875       0.82321515       1.46678101       0.00000000
Si       2.60561808       2.60027496       0.01112108       0.00000000
Si       2.48823234      -2.76946290      -0.04489621       0.00000000
Si       2.58103647      -0.05805756      -2.83645853       0.00000000
Si       3.45947472      -1.12420548       1.34774428       0.00000000
Si      -0.13188384       2.66013453      -2.83906718       0.00000000
Si      -2.91191895       2.59630020      -0.13180537       0.00000000
