10
Lattice="16.28999089631971 0.0 0.0 0.0 16.28999089631971 0.0 0.0 0.0 34.32429715621058" Properties=species:S:1:pos:R:3:initial_magmoms:R:1 pbc="T T T"
Si      -1.35628911       1.35835142       1.36099347       0.00000000
Si       1.35853713      -1.35889292       1.36037563       0.00000000
Si      -1.38034944      -1.34886028      -1.34984836       0.00000000
Si       1.38357486       1.35921479      -1.35848093       0.00000000
Si       0.00136836      -2.64876770      -2.69906516       0.00000000
Si       0.02783961       2.67696176      -2.70469091       0.00000000
Si      -2.71026504       2.71626953       0.00521730       0.00000000
Si       2.71707656      -2.71158194       0.00398162       0.00000000
Si      -2.71134018      -2.71736489       0.00741405       0.00000000
Si       2.71667745       2.71213187       0.00459946       0.00000000
