10
Lattice="16.28999089631971 0.0 0.0 0.0 16.28999089631971 0.0 0.0 0.0 34.32429715621058" Properties=species:S:1:pos:R:3:initial_magmoms:R:1 pbc="T T T"
Si       1.35617508       1.35817732       1.35704617       0.00000000
Si      -1.35684297       1.35706960      -1.35762968       0.00000000
Si       1.35738054      -1.35763025      -1.35738941       0.00000000
Si      -1.35744570      -1.35787460       1.35786995       0.00000000
Si      -0.00198738      -2.71289309      -2.71378342       0.00000000
Si      -2.71467963       0.00088441       2.71330288       0.00000000
Si      -2.71450044      -0.00212881      -2.71508775       0.00000000
Si      -2.71453302      -2.71525514      -0.00013730       0.00000000
Si       2.71464992       2.71521903      -0.00034324       0.00000000
Si       2.71451673      -0.00165065      -2.71536234       0.00000000
