10
Lattice="16.28999089631971 0.0 0.0 0.0 16.28999089631971 0.0 0.0 0.0 34.32429715621058" Properties=species:S:1:pos:R:3:initial_magmoms:R:1 pbc="T T T"
Si       0.85232538      -1.91711960      -0.96997086       0.00000000
Si      -1.79750376       0.93105495      -1.28764240       0.00000000
Si       1.69924248       1.26705249       1.18065351       0.00000000
Si       2.60683983      -0.89283861       2.21683597       0.00000000
Si       2.01841245      -2.80907855       0.83995035       0.00000000
Si      -1.42705287       3.18702447      -0.69712686       0.00000000
Si      -0.97624341      -3.25590364      -1.55403342       0.00000000
Si       3.32537544       2.10523815      -0.25616237       0.00000000
Si       2.13135102      -2.09450793      -2.94488904       0.00000000
Si       1.14626214       3.49081668       2.16020085       0.00000000
