10
Lattice="16.28999089631971 0.0 0.0 0.0 16.28999089631971 0.0 0.0 0.0 34.32429715621058" Properties=species:S:1:pos:R:3:initial_magmoms:R:1 pbc="T T T"
Si      -1.35729909      -1.35666378      -1.35728644       0.00000000
Si      -1.35591444       1.35710361       1.35883104       0.00000000
Si       1.35842310       1.35790182      -1.35687455       0.00000000
Si       1.36071999      -1.35545832       1.36027266       0.00000000
Si       2.70531288       0.00654858       2.69977910       0.00000000
Si      -2.70560610      -0.00154755       2.71031667       0.00000000
Si       2.71393029      -2.71357517       0.00000000       0.00000000
Si      -2.71562445      -2.71357843       0.00089243       0.00000000
Si      -2.71492398       0.00096111      -2.71440126       0.00000000
Si       0.00091224      -2.71468289      -2.71467585       0.00000000
