10
Lattice="16.28999089631971 0.0 0.0 0.0 16.28999089631971 0.0 0.0 0.0 34.32429715621058" Properties=species:S:1:pos:R:3:initial_magmoms:R:1 pbc="T T T"
Si       1.35570671      -1.20707271      -1.49966371       0.00000000
Si       1.72093665       0.85607208       1.43348642       0.00000000
Si      -1.01217415      -1.80183690       1.27271133       0.00000000
Si      -1.35946066       1.50736257      -1.46743317       0.00000000
Si       2.69980275      -2.47630806      -0.00741405       0.00000000
Si       2.59087152       2.69211798      -0.08714944       0.00000000
Si       0.87213643      -3.46859712       1.24181944       0.00000000
Si      -0.00467023      -2.55407652      -2.86501636       0.00000000
Si      -2.77432861      -2.70290196      -0.07619998       0.00000000
Si       3.61912890      -0.62120286       1.30380916       0.00000000
