10
Lattice="16.28999089631971 0.0 0.0 0.0 16.28999089631971 0.0 0.0 0.0 34.32429715621058" Properties=species:S:1:pos:R:3:initial_magmoms:R:1 pbc="T T T"
Si      -0.39964257       1.59231492       1.70011771       0.00000000
Si      -1.14640386      -0.18999027      -2.06416141       0.00000000
Si       0.46017621      -2.07516681       1.07575840       0.00000000
Si       1.95186780       0.80873334      -1.10253137       0.00000000
Si      -1.75979078      -2.91652902       0.69235578       0.00000000
Si       1.87981713       1.66216644       2.42487565       0.00000000
Si       3.31955991       0.76321908       0.81757089       0.00000000
Si      -0.76330867       2.14997049      -2.90050770       0.00000000
Si      -3.22606250      -1.09698489       1.49485830       0.00000000
Si       2.44107279      -0.81161667      -2.77206611       0.00000000
