10
Lattice="16.28999089631971 0.0 0.0 0.0 16.28999089631971 0.0 0.0 0.0 34.32429715621058" Properties=species:S:1:pos:R:3:initial_magmoms:R:1 pbc="T T T"
Si       1.33099074       1.36850461      -1.35726241       0.00000000
Si       1.35337320      -1.35277047       1.35454050       0.00000000
Si      -1.35913986       1.35799381       1.35323617       0.00000000
Si      -1.33659450      -1.36635633      -1.37697144       0.00000000
Si       2.71270854       0.06859719      -2.70647921       0.00000000
Si      -0.00198738      -2.71239903       2.71069423       0.00000000
Si       2.71274112       0.00249237       2.71093450       0.00000000
Si      -2.71691136      -2.71055826      -0.00816919       0.00000000
Si      -2.71679733       0.00223173       2.71090018       0.00000000
Si      -0.00148239       2.71719222       2.71069423       0.00000000
