10
Lattice="16.28999089631971 0.0 0.0 0.0 16.28999089631971 0.0 0.0 0.0 34.32429715621058" Properties=species:S:1:pos:R:3:initial_magmoms:R:1 pbc="T T T"
Si       1.35853943      -1.35268902      -1.35639401       0.00000000
Si      -1.35713619      -1.35597960       1.35797293       0.00000000
Si       1.35817942       1.35927737       1.35828185       0.00000000
Si      -1.35853713       1.35889292      -1.36037563       0.00000000
Si      -2.71650411      -2.71124244       0.00157892       0.00000000
Si       0.00051959      -2.71344159       2.71512207       0.00000000
Si       2.71590857      -2.71340901      -0.00082378       0.00000000
Si      -2.71451673       0.00165065       2.71536234       0.00000000
Si       2.71457279       2.71600631       0.00068649       0.00000000
Si       2.71574567       0.00122650       2.71501910       0.00000000
