10
Lattice="16.28999089631971 0.0 0.0 0.0 16.28999089631971 0.0 0.0 0.0 34.32429715621058" Properties=species:S:1:pos:R:3:initial_magmoms:R:1 pbc="T T T"
Si      -1.35845568      -1.34833959       1.35838482       0.00000000
Si      -1.35568638       1.35943308      -1.35804158       0.00000000
Si       1.35896067      -1.35594702      -1.35910563       0.00000000
Si       1.37450133       1.36247931       1.37877346       0.00000000
Si      -2.58103647       0.05805756       2.83645853       0.00000000
Si      -2.71423980      -2.71021617       0.00188784       0.00000000
Si       0.00169416      -2.71204065      -2.71642640       0.00000000
Si      -2.71277370       0.00205254      -2.71604883       0.00000000
Si       2.71948518      -2.71021617      -0.00030892       0.00000000
Si      -2.71292031       2.71819209      -0.00260865       0.00000000
