10
Lattice="16.28999089631971 0.0 0.0 0.0 16.28999089631971 0.0 0.0 0.0 34.32429715621058" Properties=species:S:1:pos:R:3:initial_magmoms:R:1 pbc="T T T"
Si       1.34125344       1.35310598      -1.37832725       0.00000000
Si      -1.37450133      -1.36247931      -1.37877346       0.00000000
Si      -1.34991972       1.29585321       1.46880614       0.00000000
Si       1.31303916      -1.44184419       1.44134669       0.00000000
Si      -2.12494905      -0.48120660       2.92446608       0.00000000
Si      -0.49606308      -2.42862723       2.80542935       0.00000000
Si       2.69127809       2.71966830      -0.00508000       0.00000000
Si       2.68929722      -2.74108572      -0.00466811       0.00000000
Si      -2.73782772       2.69588979      -0.00250568       0.00000000
Si       2.69981730      -0.00408879      -2.73818801       0.00000000
