10
Lattice="16.28999089631971 0.0 0.0 0.0 16.28999089631971 0.0 0.0 0.0 34.32429715621058" Properties=species:S:1:pos:R:3:initial_magmoms:R:1 pbc="T T T"
Si       1.25467209       1.03032621       1.68388231       0.00000000
Si      -2.30597982       0.32109219       0.34132100       0.00000000
Si       0.77722848      -2.22153246       0.11615349       0.00000000
Si       0.40979124       1.29689577      -1.93702414       0.00000000
Si      -0.05802498       2.93137803       2.04239980       0.00000000
Si      -0.40635405      -3.18937023      -1.64835664       0.00000000
Si      -0.93926511       0.34586928      -3.59687943       0.00000000
Si       2.63237019       0.92737341      -2.48302104       0.00000000
Si       3.03119500      -2.15689374      -0.43814990       0.00000000
Si      -2.92170924      -0.45437697       2.47021807       0.00000000
