10
Lattice="16.28999089631971 0.0 0.0 0.0 16.28999089631971 0.0 0.0 0.0 34.32429715621058" Properties=species:S:1:pos:R:3:initial_magmoms:R:1 pbc="T T T"
Si       0.96027921      -1.50930108       1.54215721       0.00000000
Si      -1.79843229       0.94798026       1.37269806       0.00000000
Si      -1.19285154      -1.77233571      -1.33871699       0.00000000
Si       1.67083272       1.61341929      -1.76653526       0.00000000
Si       2.85461073      -1.16017380       0.10008971       0.00000000
Si      -0.57712212      -0.99686655      -3.46761406       0.00000000
Si       2.98352979      -0.28763253      -2.12505275       0.00000000
Si      -3.44434131       1.06367184      -0.72643983       0.00000000
Si      -3.46048470      -1.33185411      -0.59813554       0.00000000
Si       2.25095220      -0.23356602       3.01203568       0.00000000
