10
Lattice="16.28999089631971 0.0 0.0 0.0 16.28999089631971 0.0 0.0 0.0 34.32429715621058" Properties=species:S:1:pos:R:3:initial_magmoms:R:1 pbc="T T T"
Si       1.35663120      -1.35747828      -1.35732077       0.00000000
Si      -1.35693257       1.35811359      -1.35732077       0.00000000
Si      -1.35313700      -1.36422234       1.36480347       0.00000000
Si       1.37503890       1.35433431       1.37335022       0.00000000
Si      -0.11797218       2.53496835       2.77731773       0.00000000
Si      -2.71351394      -2.71122615      -0.00054919       0.00000000
Si       2.71340901      -2.71142163       0.00418757       0.00000000
Si      -2.71339885       0.00003258      -2.71450423       0.00000000
Si       2.71417464       2.71396287       0.00161324       0.00000000
Si       0.00034209      -2.71368594      -2.71450423       0.00000000
