10
Lattice="16.28999089631971 0.0 0.0 0.0 16.28999089631971 0.0 0.0 0.0 34.32429715621058" Properties=species:S:1:pos:R:3:initial_magmoms:R:1 pbc="T T T"
Si       0.14758740       2.08381680       1.19441756       0.00000000
Si       0.36670419      -1.88915130       1.47302804       0.00000000
Si      -2.34847228      -0.54791415      -0.32494830       0.00000000
Si      -0.22025709      -1.01594214      -2.90857392       0.00000000
Si      -2.11844934       0.46133280      -2.77889665       0.00000000
Si      -1.19086416       3.33319464      -0.43458017       0.00000000
Si       0.85590918      -3.50950131      -0.19650671       0.00000000
Si      -3.55214201       0.86296275       1.22997755       0.00000000
Si      -2.73156747      -2.88787491       0.51139799       0.00000000
Si      -1.58516361      -2.69788464       2.57555940       0.00000000
