10
Lattice="16.28999089631971 0.0 0.0 0.0 16.28999089631971 0.0 0.0 0.0 34.32429715621058" Properties=species:S:1:pos:R:3:initial_magmoms:R:1 pbc="T T T"
Si       0.99105102       1.57029084      -1.41512291       0.00000000
Si      -1.16323632      -1.64186910      -1.22771215       0.00000000
Si       1.37516922      -0.61551765       1.91200172       0.00000000
Si      -1.48695120       0.74930742       1.78150067       0.00000000
Si      -2.06743232      -2.53009764       0.66215039       0.00000000
Si      -0.34984404      -2.40000570       2.29420298       0.00000000
Si       2.11079304       1.71628182       1.98600494       0.00000000
Si      -3.29032278      -0.56454624       1.09086110       0.00000000
Si       0.57140433      -2.88567576      -2.09858870       0.00000000
Si       3.05857782       1.98602793      -0.25918291       0.00000000
