10
Lattice="16.28999089631971 0.0 0.0 0.0 16.28999089631971 0.0 0.0 0.0 34.32429715621058" Properties=species:S:1:pos:R:3:initial_magmoms:R:1 pbc="T T T"
Si      -1.80337158      -1.31385366      -0.69063957       0.00000000
Si      -0.80582395       2.18145906      -0.22763887       0.00000000
Si       1.48695120      -0.74930742      -1.78150067       0.00000000
Si       0.59354244      -0.21859551       2.35907594       0.00000000
Si       2.86212042      -1.36482507       0.13050105       0.00000000
Si       1.13710716      -3.14931312       0.51270231       0.00000000
Si      -0.58048112      -3.27940506      -1.11935028       0.00000000
Si       0.44430975       3.23690445       1.45535101       0.00000000
Si       3.59774424       0.96697440       0.20450428       0.00000000
Si      -3.05979047       2.11682034       0.32666452       0.00000000
