10
Lattice="16.28999089631971 0.0 0.0 0.0 16.28999089631971 0.0 0.0 0.0 34.32429715621058" Properties=species:S:1:pos:R:3:initial_magmoms:R:1 pbc="T T T"
Si       1.30217210      -1.36145304       1.39371827       0.00000000
Si      -1.20595522      -1.72059867      -1.05167165       0.00000000
Si      -1.41058493       1.36603053       1.37692681       0.00000000
Si       1.80012482       0.65171403      -1.52181117       0.00000000
Si      -1.63361889      -0.46076265      -3.01539947       0.00000000
Si       0.68373854      -0.61809147      -3.50256449       0.00000000
Si       2.59491392       2.62285290      -0.07792650       0.00000000
Si       0.50702462      -3.50223597      -1.19111590       0.00000000
Si       2.58715988      -2.69791722      -0.09712065       0.00000000
Si       2.65308551      -0.00270414       2.75120379       0.00000000
