10
Lattice="16.28999089631971 0.0 0.0 0.0 16.28999089631971 0.0 0.0 0.0 34.32429715621058" Properties=species:S:1:pos:R:3:initial_magmoms:R:1 pbc="T T T"
Si       1.35638685       1.34069958       1.33957509       0.00000000
Si      -1.35832210       1.35247725      -1.35807590       0.00000000
Si       1.35715248      -1.36034532      -1.35690887       0.00000000
Si      -1.36884218      -1.38451968       1.37544400       0.00000000
Si       2.53526157      -0.16931826       2.69686153       0.00000000
Si       0.04932612       2.68491780       2.69703316       0.00000000
Si      -0.00061902       2.71097026      -2.71491613       0.00000000
Si      -2.71688597       2.70967202       0.00178486       0.00000000
Si       2.71578735       2.71156824      -0.00195649       0.00000000
Si       2.71399545      -0.00346977      -2.71491613       0.00000000
