10
Lattice="16.28999089631971 0.0 0.0 0.0 16.28999089631971 0.0 0.0 0.0 34.32429715621058" Properties=species:S:1:pos:R:3:initial_magmoms:R:1 pbc="T T T"
Si       0.54250587      -2.22628914      -0.30188236       0.00000000
Si      -2.30750294       0.01187541       0.17958482       0.00000000
Si       1.19630502       0.69537123       1.89786010       0.00000000
Si       1.03162941       1.51443243      -1.48411479       0.00000000
Si       3.20399865       0.69437754      -0.99931815       0.00000000
Si       0.37273149       3.53190006      -0.42466044       0.00000000
Si       0.72806526       2.99235897       1.84486335       0.00000000
Si       1.24646193      -2.22891183      -2.56114319       0.00000000
Si      -2.75336243       2.09039796       1.10225677       0.00000000
Si       3.43969866       0.12887019       1.31160078       0.00000000
