10
Lattice="10.86 0.0 0.0 0.0 10.86 0.0 0.0 0.0 10.86" Properties=species:S:1:pos:R:3:initial_magmoms:R:1 pbc="T T T"
Si       1.37661360       1.31320206      -1.40032098       0.00000000
Si       1.37661360      -1.40179794       1.31467902       0.00000000
Si      -1.33838640      -1.40179794      -1.40032098       0.00000000
Si       0.05617878       2.54431338       2.72617494       0.00000000
Si      -2.72923746       2.54614872       0.05008632       0.00000000
Si       2.73411360       2.67070206      -0.04282098       0.00000000
Si       2.73411360      -0.04429794       2.67217902       0.00000000
Si       0.01911360       2.67070206      -2.75782098       0.00000000
Si       0.01911360      -2.75929794       2.67217902       0.00000000
Si      -2.69588640      -0.04429794      -2.75782098       0.00000000
