10
Lattice="10.86 0.0 0.0 0.0 10.86 0.0 0.0 0.0 10.86" Properties=species:S:1:pos:R:3:initial_magmoms:R:1 pbc="T T T"
Si      -1.44414108      -1.45977948       1.13763930       0.00000000
Si      -1.44414108       1.25522052      -1.57736070       0.00000000
Si       1.27085892      -1.45977948      -1.57736070       0.00000000
Si       1.70450958       1.32510462       1.77253662       0.00000000
Si       1.84451670      -1.33432476       1.76642244       0.00000000
Si      -0.13109106       2.57687166       2.36953254       0.00000000
Si       2.54534508       2.57409150      -0.23052522       0.00000000
Si      -2.80164108      -0.10227948       2.49513930       0.00000000
Si       2.52312552      -2.84403852      -0.28779000       0.00000000
Si      -2.80164108       2.61272052      -0.21986070       0.00000000
