10
Lattice="10.86 0.0 0.0 0.0 10.86 0.0 0.0 0.0 10.86" Properties=species:S:1:pos:R:3:initial_magmoms:R:1 pbc="T T T"
Si       1.17526920       1.42055316       1.26325692       0.00000000
Si       1.17526920      -1.29444684      -1.45174308       0.00000000
Si      -1.53973080       1.42055316      -1.45174308       0.00000000
Si       2.53276920       0.06305316       2.62075692       0.00000000
Si       2.53276920      -2.65194684      -0.09424308       0.00000000
Si       2.53276920       2.77805316      -0.09424308       0.00000000
Si       2.53276920       0.06305316      -2.80924308       0.00000000
Si      -0.18223080       2.77805316       2.62075692       0.00000000
Si      -2.92162236      -0.03215646       2.48853642       0.00000000
Si      -0.58743912      -2.84160588      -2.62853268       0.00000000
