10
Lattice="16.28999089631971 0.0 0.0 0.0 16.28999089631971 0.0 0.0 0.0 34.5300574570662" Properties=species:S:1:pos:R:3:initial_magmoms:R:1 pbc="T T T"
Si       1.90920429      -0.84946486      -1.24798603       0.00000000
Si       0.33112683       0.94341906       2.22321899       0.00000000
Si      -0.58075479       1.95299181      -1.34850309       0.00000000
Si      -1.59685983      -1.85845475      -0.17586168       0.00000000
Si       2.58955614       1.71084096      -0.89246436       0.00000000
Si       2.05455996       2.75955858       1.20703336       0.00000000
Si      -1.94613372       0.78928308      -3.02552533       0.00000000
Si      -3.21040062      -0.75658253      -1.73575790       0.00000000
Si       0.79962723      -1.99248596      -3.07459256       0.00000000
Si      -0.37193328      -3.39160148      -1.57077319       0.00000000
