10
Lattice="16.28999089631971 0.0 0.0 0.0 16.28999089631971 0.0 0.0 0.0 34.5300574570662" Properties=species:S:1:pos:R:3:initial_magmoms:R:1 pbc="T T T"
Si       1.36925595      -1.44317020       1.31756414       0.00000000
Si      -1.75754439       1.26224694       1.01456272       0.00000000
Si      -0.33112683      -0.94341906      -2.22321899       0.00000000
Si       1.72343313       1.81613952      -1.01618563       0.00000000
Si      -1.76581971       3.12199479      -0.40897423       0.00000000
Si      -0.12973356       3.01806459      -2.09984303       0.00000000
Si      -0.82376901       2.18110068       2.95056053       0.00000000
Si      -0.91188162       1.00957275      -3.57172208       0.00000000
Si       3.29771502      -1.99841647      -0.03725795       0.00000000
Si       2.19823776      -0.13437621       3.17618005       0.00000000
