10
Lattice="16.28999089631971 0.0 0.0 0.0 16.28999089631971 0.0 0.0 0.0 34.5300574570662" Properties=species:S:1:pos:R:3:initial_magmoms:R:1 pbc="T T T"
Si      -0.85835268      -0.96560604       1.93326994       0.00000000
Si      -1.52306613      -0.01935252      -1.76690403       0.00000000
Si       0.59406372       2.25119655       0.55482927       0.00000000
Si       2.00754702      -1.13321385      -0.72330152       0.00000000
Si       2.40111342       1.72312362       1.93737902       0.00000000
Si       3.47434749      -0.16431723       0.91483985       0.00000000
Si      -0.62548713       1.51409034      -3.24914210       0.00000000
Si      -1.28506923      -3.16907289       1.24795150       0.00000000
Si       2.17284165       2.66233986      -1.31103795       0.00000000
Si      -2.74154184       0.23436423       2.79472629       0.00000000
