10
Lattice="16.28999089631971 0.0 0.0 0.0 16.28999089631971 0.0 0.0 0.0 34.5300574570662" Properties=species:S:1:pos:R:3:initial_magmoms:R:1 pbc="T T T"
Si      -1.02071511       1.14753276      -1.82798773       0.00000000
Si       1.88318916      -1.19997027      -0.86145635       0.00000000
Si      -1.30209228      -1.79589105       0.91698072       0.00000000
Si       0.03810231       1.55061252       1.89625370       0.00000000
Si       0.03668508      -2.40988558       2.80049281       0.00000000
Si      -2.09158713       0.91500930       2.98940686       0.00000000
Si       3.26645451      -1.63294218       0.93787141       0.00000000
Si      -3.26156099      -0.87057018       1.76041237       0.00000000
Si      -3.34659316       1.24411617      -1.52830120       0.00000000
Si       2.74154184      -0.23436423      -2.79472629       0.00000000
