10
Lattice="16.28999089631971 0.0 0.0 0.0 16.28999089631971 0.0 0.0 0.0 34.5300574570662" Properties=species:S:1:pos:R:3:initial_magmoms:R:1 pbc="T T T"
Si      -0.68199714      -1.34321313      -1.79767033       0.00000000
Si       1.89741033       1.36516716      -0.44643936       0.00000000
Si       1.06686468      -1.15792415       1.85871950       0.00000000
Si      -2.08762866       1.38754962      -0.05186418       0.00000000
Si       1.93360671       0.75057804       2.97179653       0.00000000
Si      -0.73638945      -1.11444777       3.40280094       0.00000000
Si      -1.80348219       2.38257540       2.19335048       0.00000000
Si      -0.27942237       1.19627244       3.59962238       0.00000000
Si      -1.81496664      -3.24881963      -1.04270473       0.00000000
Si       2.83118571       2.28402090       1.48955845       0.00000000
