10
Lattice="16.28999089631971 0.0 0.0 0.0 16.28999089631971 0.0 0.0 0.0 34.5300574570662" Properties=species:S:1:pos:R:3:initial_magmoms:R:1 pbc="T T T"
Si      -0.68966973      -1.86580514       1.36795185       0.00000000
Si      -1.38098475       2.03459819       0.26994271       0.00000000
Si       1.96553511       0.85000894       1.27601207       0.00000000
Si      -0.71228025      -0.79379282      -2.26893681       0.00000000
Si      -1.92176388      -0.42192470       2.77321202       0.00000000
Si       0.96739794       2.53181786      -2.09863447       0.00000000
Si      -3.23666010       0.87683369       1.28252789       0.00000000
Si      -2.44864764      -2.75553236       0.08809062       0.00000000
Si       0.80669709       2.28961814       2.77745922       0.00000000
Si       0.97966431      -2.47084832      -2.75311755       0.00000000
