10
Lattice="16.28999089631971 0.0 0.0 0.0 16.28999089631971 0.0 0.0 0.0 34.5300574570662" Properties=species:S:1:pos:R:3:initial_magmoms:R:1 pbc="T T T"
Si      -1.18959354       1.46989557      -1.32837551       0.00000000
Si       1.33915203       1.36296801       1.34342026       0.00000000
Si      -1.38394953      -1.34851878       1.34155564       0.00000000
Si       1.26418545      -1.43715267      -1.40386171       0.00000000
Si      -2.31712218      -0.16451271      -2.76222110       0.00000000
Si      -0.46793025      -1.81332135      -3.12917222       0.00000000
Si       2.66401773      -2.70707220       0.00476170       0.00000000
Si       2.66778072       2.71339272      -0.02518624       0.00000000
Si       2.69216685       0.00799839       2.70176442       0.00000000
Si      -0.02109555      -2.71003698       2.69958902       0.00000000
