10
Lattice="16.28999089631971 0.0 0.0 0.0 16.28999089631971 0.0 0.0 0.0 34.5300574570662" Properties=species:S:1:pos:R:3:initial_magmoms:R:1 pbc="T T T"
Si      -1.35755973       1.35759231      -1.35679031       0.00000000
Si       1.35786924      -1.35755973      -1.35703202       0.00000000
Si       1.35759231       1.35698958       1.35913835       0.00000000
Si      -1.35870003      -1.35795069       1.35789527       0.00000000
Si      -0.00079821       2.71252935      -2.71444386       0.00000000
Si       2.71412577       0.00105885      -2.71330437       0.00000000
Si      -2.71280628       0.00149868      -2.71485822       0.00000000
Si      -2.71516833      -2.71471221       0.00013812       0.00000000
Si       0.00133578      -2.71507059       2.71506541       0.00000000
Si      -2.71489140       2.71533123       0.00051795       0.00000000
