10
Lattice="16.28999089631971 0.0 0.0 0.0 16.28999089631971 0.0 0.0 0.0 34.5300574570662" Properties=species:S:1:pos:R:3:initial_magmoms:R:1 pbc="T T T"
Si      -0.50051025       0.29646171       2.28236901       0.00000000
Si      -2.24285607      -0.49440150      -0.72036646       0.00000000
Si       1.35920502      -1.94958720      -0.62837834       0.00000000
Si       0.76997943       2.26784493      -0.61245997       0.00000000
Si      -1.29932298       2.80720683      -1.68099320       0.00000000
Si      -1.62395010       2.48310099       2.14749453       0.00000000
Si      -2.40751539       0.82119519      -2.71023119       0.00000000
Si      -0.29315484      -3.73490604      -0.36104648       0.00000000
Si      -2.36955969      -2.79293679      -1.00420369       0.00000000
Si       3.67414434       0.07250679      -1.03493546       0.00000000
