10
Lattice="16.28999089631971 0.0 0.0 0.0 16.28999089631971 0.0 0.0 0.0 34.5300574570662" Properties=species:S:1:pos:R:3:initial_magmoms:R:1 pbc="T T T"
Si       1.49159385       0.17148483      -1.89228274       0.00000000
Si       1.74729798      -0.50332842       1.59180201       0.00000000
Si      -1.65235986      -1.78531884       0.26733185       0.00000000
Si      -1.35920502       1.94958720       0.62837834       0.00000000
Si       2.31493932       2.02209399      -0.40655712       0.00000000
Si       0.58179735      -1.51448130       3.41153705       0.00000000
Si      -1.52249598      -2.33803854       2.57173106       0.00000000
Si      -0.11723913      -1.51511661      -3.52306920       0.00000000
Si      -3.72876471      -0.84334959      -0.37582536       0.00000000
Si       3.00254022       1.52138826       1.93088736       0.00000000
