10
Lattice="16.28999089631971 0.0 0.0 0.0 16.28999089631971 0.0 0.0 0.0 34.5300574570662" Properties=species:S:1:pos:R:3:initial_magmoms:R:1 pbc="T T T"
Si       0.27461682       0.24283503       2.30985495       0.00000000
Si       1.70667072       1.41449328      -0.98990824       0.00000000
Si       0.10969686      -2.43427986      -0.17275397       0.00000000
Si      -2.07316314       1.18206756      -0.52506435       0.00000000
Si       0.53931303       2.51701677       2.50819572       0.00000000
Si      -1.79546751       1.69280793      -2.80857285       0.00000000
Si      -1.94636178      -3.07641537      -1.13127437       0.00000000
Si       0.58323087       3.60113256      -1.12478272       0.00000000
Si       2.31821361      -0.77625108       2.96464880       0.00000000
Si      -3.85041517       0.04567716       0.46774442       0.00000000
