10
Lattice="16.28999089631971 0.0 0.0 0.0 16.28999089631971 0.0 0.0 0.0 34.5300574570662" Properties=species:S:1:pos:R:3:initial_magmoms:R:1 pbc="T T T"
Si       1.35775521       1.35750462      -1.35792980       0.00000000
Si      -1.35725022      -1.35821133      -1.35779168       0.00000000
Si       1.35858600      -1.36088289       1.35713561       0.00000000
Si      -1.35795069       1.35721764       1.36183170       0.00000000
Si      -2.69733078      -0.03634299       2.72390510       0.00000000
Si       2.71414206       2.71324026      -0.00138120       0.00000000
Si       2.71397916      -2.71446786      -0.00200274       0.00000000
Si       0.01233153      -2.71407690       2.71547977       0.00000000
Si      -2.71580364      -2.71412577      -0.00100137       0.00000000
Si       0.00035838       2.71496049      -2.71523806       0.00000000
