10
Lattice="16.28999089631971 0.0 0.0 0.0 16.28999089631971 0.0 0.0 0.0 34.5300574570662" Properties=species:S:1:pos:R:3:initial_magmoms:R:1 pbc="T T T"
Si      -2.36055132      -0.06385680      -0.23915531       0.00000000
Si       0.16465932      -1.31559669       1.98986473       0.00000000
Si       0.51971616      -0.77167359      -2.25319110       0.00000000
Si       1.10819241       1.98601164       1.02923800       0.00000000
Si      -0.52167096       1.83488931       2.80985047       0.00000000
Si      -1.59513309      -0.24641883       3.17393560       0.00000000
Si      -2.87790706       2.18186631      -0.37920930       0.00000000
Si       2.40751539      -0.82119519       2.71023119       0.00000000
Si      -3.47408196      -0.42011910       1.81369228       0.00000000
Si       0.03795570      -3.61413198       1.70602750       0.00000000
