10
Lattice="16.28999089631971 0.0 0.0 0.0 16.28999089631971 0.0 0.0 0.0 34.5300574570662" Properties=species:S:1:pos:R:3:initial_magmoms:R:1 pbc="T T T"
Si       1.55784528      -1.11845674      -1.47015255       0.00000000
Si       1.42759044       1.61771103       1.10437544       0.00000000
Si      -1.14808662       1.58493555      -1.45602975       0.00000000
Si      -0.76426164       1.16157474       2.10191483       0.00000000
Si      -1.44461349      -1.39873108       1.74639316       0.00000000
Si      -2.55419055      -2.54175218      -0.08021337       0.00000000
Si       0.21888873      -2.46455387      -2.83868308       0.00000000
Si       2.83058298      -2.49001514      -0.01460622       0.00000000
Si      -2.49580719       0.24863427      -2.83989163       0.00000000
Si      -2.62821231       2.77024482       0.03477179       0.00000000
