10
Lattice="16.28999089631971 0.0 0.0 0.0 16.28999089631971 0.0 0.0 0.0 34.5300574570662" Properties=species:S:1:pos:R:3:initial_magmoms:R:1 pbc="T T T"
Si       0.66018483       1.20876687       1.92885009       0.00000000
Si      -0.63226377      -2.09092738       0.94608957       0.00000000
Si       1.89680760       0.26231787      -1.41559503       0.00000000
Si      -1.67154948       0.67491099      -2.13233583       0.00000000
Si      -2.20654566       1.72362861      -0.03283810       0.00000000
Si       0.52030260       1.13104728      -3.12987522       0.00000000
Si      -1.28058948       2.64774402       1.93627405       0.00000000
Si       1.21178052      -2.22172468       2.47528855       0.00000000
Si       2.82861189       2.37053709      -0.53034745       0.00000000
Si      -0.98424180      -3.44833955      -1.06131644       0.00000000
