10
Lattice="16.28999089631971 0.0 0.0 0.0 16.28999089631971 0.0 0.0 0.0 34.5300574570662" Properties=species:S:1:pos:R:3:initial_magmoms:R:1 pbc="T T T"
Si      -1.61508834      -0.65569531       1.47712762       0.00000000
Si       0.06581160      -1.69465100      -1.55772082       0.00000000
Si      -0.62416764       1.84284372      -1.27985729       0.00000000
Si       2.23531380      -0.11580235       0.75392970       0.00000000
Si      -0.43640910       0.51742416       3.22362438       0.00000000
Si       2.80820052       2.06653800       0.00690602       0.00000000
Si       1.98203688      -1.06750813      -2.77010635       0.00000000
Si       1.45634229       2.58374550      -2.03116270       0.00000000
Si       0.14445972      -3.60688523      -0.19782281       0.00000000
Si      -2.09096811       0.87394710      -2.91799867       0.00000000
