10
Lattice="16.28999089631971 0.0 0.0 0.0 16.28999089631971 0.0 0.0 0.0 34.5300574570662" Properties=species:S:1:pos:R:3:initial_magmoms:R:1 pbc="T T T"
Si       1.37650500      -0.86872941       1.71428019       0.00000000
Si       1.56602286       1.36726857      -1.19922957       0.00000000
Si      -1.42759044      -1.61771103      -1.10437544       0.00000000
Si      -2.19185208      -0.45613629       0.99753939       0.00000000
Si      -0.52030260      -1.13104728       3.12987522       0.00000000
Si       2.46283623      -2.38881447       0.17168354       0.00000000
Si      -1.99431954       2.80321578       0.77996537       0.00000000
Si      -2.57567706      -0.03277548      -2.56040519       0.00000000
Si       2.30830929       1.23948981       2.59952777       0.00000000
Si       0.15555321       2.71068858      -2.57463158       0.00000000
