10
Lattice="16.28999089631971 0.0 0.0 0.0 16.28999089631971 0.0 0.0 0.0 34.5300574570662" Properties=species:S:1:pos:R:3:initial_magmoms:R:1 pbc="T T T"
Si       1.02913704       2.04548643       0.29246975       0.00000000
Si      -0.92595618      -0.92411541      -1.96911216       0.00000000
Si      -1.12708881      -0.66652164       1.96966464       0.00000000
Si       1.94077431      -1.43897715      -0.00742397       0.00000000
Si       1.28058948      -2.64774402      -1.93627405       0.00000000
Si      -0.45115155      -2.87463114       2.22325352       0.00000000
Si       1.44940275       3.00175830      -1.76669685       0.00000000
Si       3.28233726       1.76520069       0.97972187       0.00000000
Si      -0.48187449       3.59973162       1.30647998       0.00000000
Si      -2.64938931      -2.74025493      -0.95292653       0.00000000
