10
Lattice="16.28999089631971 0.0 0.0 0.0 16.28999089631971 0.0 0.0 0.0 34.5300574570662" Properties=species:S:1:pos:R:3:initial_magmoms:R:1 pbc="T T T"
Si      -0.22967271       0.13923063       2.29300428       0.00000000
Si      -1.80704970       0.52807293      -1.38254974       0.00000000
Si       1.47953925       1.77551226      -0.49654250       0.00000000
Si       1.07323407      -1.88744085      -1.02253916       0.00000000
Si      -0.22827177       0.93921624      -3.24841697       0.00000000
Si       2.13397371       0.91175130      -2.56917583       0.00000000
Si      -2.40111342      -1.72312362      -1.93737902       0.00000000
Si       1.82596239      -0.86638365       3.10307988       0.00000000
Si       3.15374400      -1.14653907      -1.77384457       0.00000000
Si      -0.78700248       2.48497434       2.76375281       0.00000000
