10
Lattice="16.28999089631971 0.0 0.0 0.0 16.28999089631971 0.0 0.0 0.0 34.5300574570662" Properties=species:S:1:pos:R:3:initial_magmoms:R:1 pbc="T T T"
Si       2.29342023      -0.51678396       0.27696575       0.00000000
Si      -0.80213589       0.67272813       2.22896656       0.00000000
Si       0.59950458      -0.81047637      -2.24735552       0.00000000
Si      -0.24729849       2.38172832      -0.75883297       0.00000000
Si      -1.41916851      -2.15699148      -0.32969317       0.00000000
Si      -1.45613052       0.19513791      -3.05743112       0.00000000
Si       0.03453480      -3.15695313      -1.86949289       0.00000000
Si      -2.82856302      -1.37117817      -1.98658438       0.00000000
Si       1.07929395       1.61886762       3.44033656       0.00000000
Si       2.62065375      -2.48557707       1.69915602       0.00000000
