10
Lattice="16.28999089631971 0.0 0.0 0.0 16.28999089631971 0.0 0.0 0.0 34.5300574570662" Properties=species:S:1:pos:R:3:initial_magmoms:R:1 pbc="T T T"
Si      -1.24123284       1.43788572       1.39113737       0.00000000
Si       1.56877587       1.23929433      -1.25194525       0.00000000
Si      -1.65812652      -1.15950591      -1.24772464       0.00000000
Si       1.48812408      -1.28555793       1.36554023       0.00000000
Si       0.17515008       1.03488741      -3.23059742       0.00000000
Si      -2.73445569       2.55228462      -0.05172260       0.00000000
Si      -2.59455717       0.08037486       2.75365277       0.00000000
Si       0.12062745      -2.63596635       2.75268592       0.00000000
Si      -2.67978645      -2.72890080       0.09860063       0.00000000
Si      -3.40895943       0.59140845      -1.67101197       0.00000000
