10
Lattice="16.28999089631971 0.0 0.0 0.0 16.28999089631971 0.0 0.0 0.0 34.5300574570662" Properties=species:S:1:pos:R:3:initial_magmoms:R:1 pbc="T T T"
Si      -1.44176274       1.25359695      -1.31664909       0.00000000
Si       1.26605880      -1.34099280      -1.41776697       0.00000000
Si       1.35865116       1.34653140       1.33743620       0.00000000
Si      -1.36071999      -1.36603053       1.33657295       0.00000000
Si      -0.61537104      -2.28713229      -2.62913696       0.00000000
Si      -2.36156130      -0.45541953      -2.68808602       0.00000000
Si      -0.00185706       2.70345582       2.69560771       0.00000000
Si       2.71104696      -0.01008351       2.69612566       0.00000000
Si      -2.71785618      -0.00894321       2.69736874       0.00000000
Si      -0.00158013      -2.72476314       2.69640190       0.00000000
