10
Lattice="16.28999089631971 0.0 0.0 0.0 16.28999089631971 0.0 0.0 0.0 34.5300574570662" Properties=species:S:1:pos:R:3:initial_magmoms:R:1 pbc="T T T"
Si       1.35698958       1.35620766      -1.35817151       0.00000000
Si      -1.35900954      -1.35619137      -1.35641048       0.00000000
Si       1.35723393      -1.35739683       1.35761903       0.00000000
Si      -1.35793440       1.35790182       1.35730826       0.00000000
Si      -2.71202436      -0.00122175      -2.71475463       0.00000000
Si       2.71482624      -2.71423980      -0.00041436       0.00000000
Si       2.71404432       2.71534752      -0.00044889       0.00000000
Si      -0.00149868       2.71614573       2.71340796       0.00000000
Si      -2.71526607      -2.71480995      -0.00013812       0.00000000
Si      -2.71515204       2.71495656      -0.00010359       0.00000000
