10
Lattice="16.28999089631971 0.0 0.0 0.0 16.28999089631971 0.0 0.0 0.0 34.5300574570662" Properties=species:S:1:pos:R:3:initial_magmoms:R:1 pbc="T T T"
Si      -1.35702216       1.35547461      -1.35872399       0.00000000
Si       1.36014984      -1.36138788      -1.35744638       0.00000000
Si      -1.39028634      -1.35832536       1.33558884       0.00000000
Si       1.36428750       1.36479249       1.37239790       0.00000000
Si       0.00089595      -2.63360430       2.66651612       0.00000000
Si       2.61174312      -0.07996761       2.78837276       0.00000000
Si      -2.71241532       2.70905958       0.00041436       0.00000000
Si       2.71422351       2.70967860       0.00062154       0.00000000
Si       0.00149868       2.71210581      -2.71513447       0.00000000
Si      -2.71345788      -0.00276930      -2.71482369       0.00000000
