10
Lattice="16.28999089631971 0.0 0.0 0.0 16.28999089631971 0.0 0.0 0.0 34.5300574570662" Properties=species:S:1:pos:R:3:initial_magmoms:R:1 pbc="T T T"
Si       1.35646830       1.35676152       1.35775715       0.00000000
Si      -1.35686578      -1.35664749       1.35851681       0.00000000
Si      -1.35712642       1.35749457      -1.35779168       0.00000000
Si       1.35791811      -1.35767376      -1.35796433       0.00000000
Si      -2.71452392       2.71445157       0.00017265       0.00000000
Si      -2.71447363      -2.71482624       0.00093231       0.00000000
Si       0.00043983      -2.71542897      -2.71389138       0.00000000
Si       2.71516833       2.71471221      -0.00013812       0.00000000
Si      -2.71436102      -0.00030951      -2.71603225       0.00000000
Si       2.71555929      -2.71508688       0.00003453       0.00000000
