10
Lattice="16.28999089631971 0.0 0.0 0.0 16.28999089631971 0.0 0.0 0.0 34.5300574570662" Properties=species:S:1:pos:R:3:initial_magmoms:R:1 pbc="T T T"
Si       0.75132738       2.11124916      -0.84239575       0.00000000
Si       2.26202940      -0.89422326       0.13950151       0.00000000
Si      -1.71893709      -1.19407329      -1.42388225       0.00000000
Si      -0.10319715       0.59030073       2.48816827       0.00000000
Si       1.64763576      -1.16061363       2.91145560       0.00000000
Si      -1.06205913       3.49910829      -0.02658816       0.00000000
Si       3.48091236       1.03377969       0.92858282       0.00000000
Si      -3.17288475       2.09557818       0.02648457       0.00000000
Si      -0.89384859      -0.98334585      -3.58722608       0.00000000
Si      -3.74272524       0.13597263      -1.40630644       0.00000000
