10
Lattice="16.28999089631971 0.0 0.0 0.0 16.28999089631971 0.0 0.0 0.0 34.5300574570662" Properties=species:S:1:pos:R:3:initial_magmoms:R:1 pbc="T T T"
Si       0.35197803       1.35741216       2.00740601       0.00000000
Si       1.69518627      -0.92108547      -1.58213359       0.00000000
Si      -1.36765953       1.56294472      -1.42654106       0.00000000
Si      -1.16737398      -2.09609946       1.26459500       0.00000000
Si      -2.24393121      -2.76768729      -0.69060154       0.00000000
Si       0.98424180       3.44833955       1.06131644       0.00000000
Si       0.36266427      -2.12900526      -3.24738107       0.00000000
Si      -3.27686382       2.41240958      -0.17855503       0.00000000
Si      -2.47723659       0.41992362      -3.25314759       0.00000000
Si       3.17769030      -2.55357153      -0.52900078       0.00000000
