10
Lattice="16.28999089631971 0.0 0.0 0.0 16.28999089631971 0.0 0.0 0.0 34.5300574570662" Properties=species:S:1:pos:R:3:initial_magmoms:R:1 pbc="T T T"
Si       0.43139178      -2.16896463       0.77506210       0.00000000
Si       2.26483128       0.48159756      -0.58359283       0.00000000
Si       0.02156796       1.47422871       1.92660563       0.00000000
Si      -1.41064884       0.04176756      -1.97954024       0.00000000
Si      -0.05708016       3.38646294       0.56670762       0.00000000
Si       1.62707778      -1.55409858       2.76323486       0.00000000
Si       2.02357638       0.76101993       3.03629871       0.00000000
Si       3.04849431      -1.47983247      -1.62609037       0.00000000
Si      -3.50635734      -0.78744231      -1.26953280       0.00000000
Si      -1.40522427       2.27833569      -2.77949853       0.00000000
