10
Lattice="16.28999089631971 0.0 0.0 0.0 16.28999089631971 0.0 0.0 0.0 34.5300574570662" Properties=species:S:1:pos:R:3:initial_magmoms:R:1 pbc="T T T"
Si      -0.07864812       1.91223423      -1.35989801       0.00000000
Si      -1.80747324       0.54120267       1.42208668       0.00000000
Si       2.00200842      -0.71320878       1.10969308       0.00000000
Si      -0.02156796      -1.47422871      -1.92660563       0.00000000
Si       3.37971888      -0.08392608      -0.64951074       0.00000000
Si       2.24326332      -0.99263115      -2.51019846       0.00000000
Si       1.60550982      -3.02832729       0.83662923       0.00000000
Si      -0.14445972       3.60688523       0.19782281       0.00000000
Si      -3.68776278      -0.61269948       0.57064405       0.00000000
Si      -1.75954806       2.95118992       1.67495043       0.00000000
