10
Lattice="16.28999089631971 0.0 0.0 0.0 16.28999089631971 0.0 0.0 0.0 34.5300574570662" Properties=species:S:1:pos:R:3:initial_magmoms:R:1 pbc="T T T"
Si      -1.35848826       1.35516510       1.36141734       0.00000000
Si       1.35620766      -1.35923760       1.36007066       0.00000000
Si      -1.36013355      -1.35974259      -1.37171421       0.00000000
Si       1.35599589       1.35063648      -1.38708009       0.00000000
Si       2.71143792       2.71347417      -0.00210633       0.00000000
Si       2.71326240      -2.71713128      -0.00193368       0.00000000
Si      -0.00092853       2.71293660       2.71838029       0.00000000
Si       2.71350675      -0.00263898       2.71786234       0.00000000
Si      -2.71762812       2.71389771       0.00158838       0.00000000
Si      -2.71549413      -2.71796207      -0.00010359       0.00000000
