10
Lattice="16.28999089631971 0.0 0.0 0.0 16.28999089631971 0.0 0.0 0.0 34.5300574570662" Properties=species:S:1:pos:R:3:initial_magmoms:R:1 pbc="T T T"
Si      -2.11978512      -1.05560829      -0.02645004       0.00000000
Si      -0.77822217       2.14856955       0.96069580       0.00000000
Si       0.04864194       0.10616193      -2.48564758       0.00000000
Si       1.54605132      -1.77554484       0.84360431       0.00000000
Si      -2.20566600      -2.60711676       1.77418987       0.00000000
Si      -3.03142239       2.42885529       0.27344368       0.00000000
Si       0.72412308      -3.92214493      -0.00407455       0.00000000
Si       3.83745878      -1.07225667       0.43718530       0.00000000
Si       2.26751003       1.03102668      -3.14544828       0.00000000
Si      -0.88316235      -2.00205729      -3.37089515       0.00000000
