10
Lattice="16.28999089631971 0.0 0.0 0.0 16.28999089631971 0.0 0.0 0.0 34.5300574570662" Properties=species:S:1:pos:R:3:initial_magmoms:R:1 pbc="T T T"
Si       0.40343814       2.19375801       0.86484030       0.00000000
Si       2.11225818      -0.87470784       0.80306600       0.00000000
Si      -1.79693361      -0.77887377       1.44352986       0.00000000
Si       0.47164437      -0.96130548      -2.23744538       0.00000000
Si      -1.29953475       1.52288694      -1.99535502       0.00000000
Si       2.37698208       0.36149139      -2.65408529       0.00000000
Si       3.64059413       0.19046268      -0.63932437       0.00000000
Si      -1.50327378      -0.40593051      -3.37566030       0.00000000
Si       1.31730714       1.86365745       2.97442081       0.00000000
Si      -3.64115709      -0.89471196      -0.06577980       0.00000000
