10
Lattice="16.28999089631971 0.0 0.0 0.0 16.28999089631971 0.0 0.0 0.0 34.5300574570662" Properties=species:S:1:pos:R:3:initial_magmoms:R:1 pbc="T T T"
Si       0.49335894      -2.09715831       0.94895557       0.00000000
Si      -1.84422348      -0.11583819      -1.50930965       0.00000000
Si      -0.58590243       1.11389391       2.06306850       0.00000000
Si       1.79693361       0.77887377      -1.44352986       0.00000000
Si       2.20037175       2.97263178      -0.57868956       0.00000000
Si      -1.49780034      -2.75773410       2.09031273       0.00000000
Si       1.18183950      -3.55509702      -0.74854300       0.00000000
Si      -1.41297831       3.23895699       1.55223054       0.00000000
Si      -1.18978902      -0.97959915      -3.58194298       0.00000000
Si      -2.87826381       2.00197584      -1.77526031       0.00000000
