10
Lattice="16.28999089631971 0.0 0.0 0.0 16.28999089631971 0.0 0.0 0.0 34.5300574570662" Properties=species:S:1:pos:R:3:initial_magmoms:R:1 pbc="T T T"
Si      -1.35689184       1.35764118       1.35786074       0.00000000
Si      -1.35915615      -1.35759231      -1.35685937       0.00000000
Si       1.35811359      -1.35777150       1.35799886       0.00000000
Si       1.35812154       1.35964485      -1.35692843       0.00000000
Si      -2.71155195      -0.00097740      -2.71554883       0.00000000
Si      -2.71422351      -2.71450044       0.00037983       0.00000000
Si      -2.71337643      -0.00097740       2.71547977       0.00000000
Si       0.00117288      -2.71458189       2.71472010       0.00000000
Si       2.71479433      -0.00216657       2.71527259       0.00000000
Si      -2.71500543       2.71508688       0.00034530       0.00000000
