10
Lattice="16.28999089631971 0.0 0.0 0.0 16.28999089631971 0.0 0.0 0.0 34.5300574570662" Properties=species:S:1:pos:R:3:initial_magmoms:R:1 pbc="T T T"
Si       1.73444517       0.47527704      -1.55281755       0.00000000
Si      -1.96569801      -1.05336027      -1.02064001       0.00000000
Si       1.13362110       1.96410159       1.04488012       0.00000000
Si       0.26564103      -2.29574970       1.61935701       0.00000000
Si      -2.79277389       1.07170281      -1.53147796       0.00000000
Si      -2.92431564       0.00931788       2.00091436       0.00000000
Si      -1.08339903      -0.98347617       3.23988804       0.00000000
Si       3.08410818      -1.45021725      -1.55157447       0.00000000
Si       2.86606327       2.36125179      -0.59685238       0.00000000
Si       0.82057617       0.80537760      -3.66239806       0.00000000
