10
Lattice="16.28999089631971 0.0 0.0 0.0 16.28999089631971 0.0 0.0 0.0 34.5300574570662" Properties=species:S:1:pos:R:3:initial_magmoms:R:1 pbc="T T T"
Si      -1.56877587      -1.23929433       1.25194525       0.00000000
Si       1.37062431       1.57165920       1.16352409       0.00000000
Si      -1.39362579      -0.20440692      -1.97865217       0.00000000
Si       0.93623517      -0.01383021      -2.30250976       0.00000000
Si      -0.08065179      -2.52485226       2.61748548       0.00000000
Si       2.61356760       0.18748161       2.63495770       0.00000000
Si       1.99068687      -2.10303900      -2.39998816       0.00000000
Si      -2.39173038       1.84629231      -2.25592868       0.00000000
Si      -2.81000871       0.19859139       2.64308263       0.00000000
Si      -0.08402382       2.91491631       2.61253732       0.00000000
