10
Lattice="16.28999089631971 0.0 0.0 0.0 16.28999089631971 0.0 0.0 0.0 34.5300574570662" Properties=species:S:1:pos:R:3:initial_magmoms:R:1 pbc="T T T"
Si       1.35374787      -1.35254241      -1.36138281       0.00000000
Si      -1.35837423      -1.35663120       1.35540910       0.00000000
Si       1.35677781       1.35896067       1.35540910       0.00000000
Si      -1.35650088       1.35723393      -1.36376538       0.00000000
Si       2.71475274      -2.71207323      -0.00186462       0.00000000
Si      -0.00026064      -2.71407690       2.71292454       0.00000000
Si       2.71495715       0.00076563       2.71278642       0.00000000
Si      -2.71539639       0.00079821       2.71285548       0.00000000
Si      -0.00070047       2.71608425       2.71358061       0.00000000
Si       2.71507059       2.71485882      -0.00217539       0.00000000
