10
Lattice="16.28999089631971 0.0 0.0 0.0 16.28999089631971 0.0 0.0 0.0 34.5300574570662" Properties=species:S:1:pos:R:3:initial_magmoms:R:1 pbc="T T T"
Si       1.35837423       1.35663120      -1.35540910       0.00000000
Si      -1.35702216       1.35742941       1.35744638       0.00000000
Si       1.35811359      -1.35744570       1.35751544       0.00000000
Si      -1.35705474      -1.35913986      -1.35772262       0.00000000
Si      -2.71173114       0.00027693      -2.71492728       0.00000000
Si      -0.00112401       2.71295289       2.71547977       0.00000000
Si      -2.71419093       2.71453302       0.00000000       0.00000000
Si       2.71212210       0.00408879      -2.71679191       0.00000000
Si      -2.71404432      -2.71534752       0.00044889       0.00000000
Si      -2.71554300       0.00079821       2.71385685       0.00000000
