10
Lattice="16.28999089631971 0.0 0.0 0.0 16.28999089631971 0.0 0.0 0.0 34.5300574570662" Properties=species:S:1:pos:R:3:initial_magmoms:R:1 pbc="T T T"
Si      -0.68007492       1.73370627       1.38265333       0.00000000
Si      -0.27438876      -1.79830197       1.44473841       0.00000000
Si      -1.67780484      -0.04391784      -1.68827904       0.00000000
Si       2.37265872       0.38380869      -0.25863027       0.00000000
Si       2.24946380       0.72596385      -2.58968670       0.00000000
Si       0.86206680      -0.88959690       3.30542613       0.00000000
Si      -0.81897975      -1.87626591      -2.96368196       0.00000000
Si       0.71006481       1.46080968       3.25725667       0.00000000
Si      -1.42058574       2.01215124      -2.74969907       0.00000000
Si       0.50927427      -3.75973200       0.40224086       0.00000000
