10
Lattice="16.28999089631971 0.0 0.0 0.0 16.28999089631971 0.0 0.0 0.0 34.5300574570662" Properties=species:S:1:pos:R:3:initial_magmoms:R:1 pbc="T T T"
Si      -1.37771046      -0.62928270       1.75920382       0.00000000
Si       2.23432241      -0.66396411      -0.18370001       0.00000000
Si      -0.15200199       2.35040658      -0.04816946       0.00000000
Si      -1.13645556      -0.90870507      -1.86068772       0.00000000
Si      -3.37971888       0.08392608       0.64951074       0.00000000
Si      -0.86206680       0.88959690      -3.30542613       0.00000000
Si      -1.54214172       2.62330317      -1.92277279       0.00000000
Si      -0.17378172       0.32162976       3.60645934       0.00000000
Si       2.08418888      -2.98611990      -0.18459779       0.00000000
Si      -1.77420906      -2.94440121       1.48613997       0.00000000
