10
Lattice="16.28999089631971 0.0 0.0 0.0 16.28999089631971 0.0 0.0 0.0 34.5300574570662" Properties=species:S:1:pos:R:3:initial_magmoms:R:1 pbc="T T T"
Si       1.35081567      -1.35695700      -1.35865493       0.00000000
Si       1.35524655       1.35609363       1.35806792       0.00000000
Si      -1.35976540       1.35379674      -1.36183170       0.00000000
Si      -1.35948847      -1.35871632       1.35720467       0.00000000
Si       2.71200807       2.71103067       0.00041436       0.00000000
Si       2.71280628      -0.00149868       2.71485822       0.00000000
Si      -0.00208512       2.71383255       2.71537618       0.00000000
Si      -0.00236205      -2.71621089       2.71499634       0.00000000
Si      -2.71688597      -0.00175932       2.71516900       0.00000000
Si       2.71366965      -2.71847520      -0.00062154       0.00000000
