10
Lattice="16.28999089631971 0.0 0.0 0.0 16.28999089631971 0.0 0.0 0.0 34.5300574570662" Properties=species:S:1:pos:R:3:initial_magmoms:R:1 pbc="T T T"
Si       1.35346117      -1.35179307       1.35924194       0.00000000
Si      -1.35668074      -1.35560493      -1.35727373       0.00000000
Si       1.35812011       1.35998694      -1.35706655       0.00000000
Si      -1.35554044       1.35821133       1.36428333       0.00000000
Si       2.68223647       0.01345554       2.72014133       0.00000000
Si      -2.71362145      -2.71241532      -0.00055248       0.00000000
Si       2.71431148      -2.71329498       0.00031077       0.00000000
Si       0.00071676      -2.71256193      -2.71523806       0.00000000
Si       2.71545178       0.00224802      -2.71437480       0.00000000
Si      -2.71479433       0.00216657      -2.71527259       0.00000000
