10
Lattice="16.28999089631971 0.0 0.0 0.0 16.28999089631971 0.0 0.0 0.0 34.5300574570662" Properties=species:S:1:pos:R:3:initial_magmoms:R:1 pbc="T T T"
Si       1.39844763      -1.29712383      -1.32705991       0.00000000
Si      -1.61969515      -1.01802726       1.32167322       0.00000000
Si       1.38605094       1.25725961       1.40530506       0.00000000
Si      -1.34390056       1.46039917      -1.31203933       0.00000000
Si      -2.35455334       0.92686746       2.51016393       0.00000000
Si      -0.32751045       2.23740611       2.86306131       0.00000000
Si       0.02526579      -2.62091439      -2.69721336       0.00000000
Si      -2.69263016       0.09953190      -2.69034187       0.00000000
Si      -2.75555843      -2.63764422       0.02531055       0.00000000
Si       2.73782772       0.09643680      -2.68913332       0.00000000
