10
Lattice="16.28999089631971 0.0 0.0 0.0 16.28999089631971 0.0 0.0 0.0 34.5300574570662" Properties=species:S:1:pos:R:3:initial_magmoms:R:1 pbc="T T T"
Si       1.61969515       1.01802726      -1.32167322       0.00000000
Si       0.32286291      -0.51873876       2.24915108       0.00000000
Si      -1.13586327      -1.61961696      -1.29636267       0.00000000
Si      -0.73485819       1.94489472       1.18849071       0.00000000
Si      -2.06348103      -0.53981802       2.53561260       0.00000000
Si      -2.44662183      -0.23324022      -2.64572901       0.00000000
Si       0.27579459       2.47842643      -2.63371254       0.00000000
Si       0.84021865      -2.76446187       2.38920507       0.00000000
Si       3.00574609       2.27528687       0.08363185       0.00000000
Si       1.29218470       3.25543337       1.54138810       0.00000000
