10
Lattice="16.2900001489832 0.0 0.0 0.0 16.2900001489832 0.0 0.0 0.0 29.13749961474497" Properties=species:S:1:pos:R:3:initial_magmoms:R:1 pbc="T T T"
Si      -0.77020750      -1.79035247      -1.28540080       0.00000000
Si       0.14304249      -0.70679053       2.28041727       0.00000000
Si      -1.56735865       1.83508481      -0.04551277       0.00000000
Si       1.90263944       0.88389541      -1.19621091       0.00000000
Si       2.51191151      -0.13046661       2.06765525       0.00000000
Si      -2.06640281      -0.35779356      -2.62115119       0.00000000
Si       0.74160226       2.39490695      -2.60151252       0.00000000
Si      -1.58078161       2.53250858       2.20398961       0.00000000
Si      -1.82177588       0.41295150       3.20934990       0.00000000
Si      -2.07156674      -3.12658860       0.14921314       0.00000000
