10
Lattice="16.2900001489832 0.0 0.0 0.0 16.2900001489832 0.0 0.0 0.0 29.13749961474497" Properties=species:S:1:pos:R:3:initial_magmoms:R:1 pbc="T T T"
Si      -0.60841522      -1.39287646      -0.23790768       0.00000000
Si      -1.28020179       0.80044174       1.80667066       0.00000000
Si       1.94031821       1.23783834      -0.94568669       0.00000000
Si      -1.52678189       2.28013413      -0.14262806       0.00000000
Si       2.40414338       0.60049828       1.32928187       0.00000000
Si       1.32968755      -0.49951656      -2.44877374       0.00000000
Si      -1.05148693      -0.88534522      -2.48420494       0.00000000
Si       0.75492748      -0.36421182       2.74597624       0.00000000
Si      -2.36271954      -1.21645576       1.31244040       0.00000000
Si       1.18366399      -2.77781970       0.32616517       0.00000000
