10
Lattice="16.2900001489832 0.0 0.0 0.0 16.2900001489832 0.0 0.0 0.0 29.13749961474497" Properties=species:S:1:pos:R:3:initial_magmoms:R:1 pbc="T T T"
Si      -1.95032027       0.71900803       1.10047965       0.00000000
Si       0.78350014      -1.98511222       1.05296222       0.00000000
Si       1.77341087       1.83909215      -0.26092340       0.00000000
Si      -0.61747246       2.08510373       2.46527722       0.00000000
Si       2.12656178      -0.65354503       2.44884367       0.00000000
Si       3.42968034       0.73169794       1.03884219       0.00000000
Si       0.76172041       3.44626356       1.11744059       0.00000000
Si      -3.29546703       2.04315698      -0.28849621       0.00000000
Si       0.76833415       0.71946415       3.82591104       0.00000000
Si       2.07345638      -3.44671968      -0.31483360       0.00000000
