10
Lattice="16.2900001489832 0.0 0.0 0.0 16.2900001489832 0.0 0.0 0.0 29.13749961474497" Properties=species:S:1:pos:R:3:initial_magmoms:R:1 pbc="T T T"
Si       1.97403851      -1.02830952       0.68353660       0.00000000
Si      -1.67601296       0.22813657       1.60069768       0.00000000
Si       0.39765519       1.66486734      -1.63554613       0.00000000
Si      -1.19400814      -1.71162615      -1.19169460       0.00000000
Si       1.14872194       2.41865451       0.58904369       0.00000000
H       -2.32036391       1.58185350       1.37820373       0.00000000
Si       3.23579676      -0.30197751      -1.15640908       0.00000000
Si      -0.55640124      -3.54026012       0.15713854       0.00000000
Si       1.96361291       0.54531753      -3.00372656       0.00000000
Si      -3.45993087      -0.83947584      -1.22770855       0.00000000
