10
Lattice="16.2900001489832 0.0 0.0 0.0 16.2900001489832 0.0 0.0 0.0 29.13749961474497" Properties=species:S:1:pos:R:3:initial_magmoms:R:1 pbc="T T T"
Si      -0.58692871       0.67241863      -2.13892557       0.00000000
Si       1.16471872       1.76793743       0.96162490       0.00000000
Si      -1.86799061      -0.49909302       1.29647305       0.00000000
Si       1.11224863      -2.06597764      -0.17648584       0.00000000
Si      -2.17419374      -2.69320943       0.55265096       0.00000000
Si       3.17751114       0.60826861       1.40247527       0.00000000
Si       1.58363236      -2.27649983       2.19950243       0.00000000
Si      -1.97938163      -1.05547309      -2.78338879       0.00000000
Si      -3.45481092       0.89629210       0.33764535       0.00000000
Si      -1.06057675      -2.98227549      -1.68464282       0.00000000
