10
Lattice="16.2900001489832 0.0 0.0 0.0 16.2900001489832 0.0 0.0 0.0 29.13749961474497" Properties=species:S:1:pos:R:3:initial_magmoms:R:1 pbc="T T T"
Si      -1.16471872      -1.76793743      -0.96162490       0.00000000
Si       2.01279242      -1.15966882       0.44085037       0.00000000
Si      -1.31287627       1.11189025       1.63219532       0.00000000
Si       1.00002682       1.42306183      -1.61625710       0.00000000
H        2.23777361       0.89438617       2.45777723       0.00000000
Si       3.21763341       0.59818510       1.33443921       0.00000000
Si       2.57399921       2.50351238      -0.09720270       0.00000000
Si       2.64122804      -1.75966211      -1.75961360       0.00000000
Si       1.74353501      -0.14203251      -3.23146526       0.00000000
Si      -1.75164743      -1.09551880      -3.10055047       0.00000000
