10
Lattice="16.2900001489832 0.0 0.0 0.0 16.2900001489832 0.0 0.0 0.0 29.13749961474497" Properties=species:S:1:pos:R:3:initial_magmoms:R:1 pbc="T T T"
Si      -1.19425249       1.40584330      -1.45466053       0.00000000
Si       1.44762715      -1.32634810      -1.36579116       0.00000000
Si      -1.87382243      -0.93379168       1.17342538       0.00000000
H        1.65299519       1.72105481       0.54682346       0.00000000
H       -1.68643856      -1.31699764       2.65299848       0.00000000
Si      -2.61658127       2.72650620      -0.16331569       0.00000000
Si      -2.59639796       0.04597038      -2.80110439       0.00000000
Si      -3.49865220       0.97909417       1.22327965       0.00000000
Si       0.12595428      -2.65224008      -2.78073728       0.00000000
Si       2.75059911       2.71529867       0.00632284       0.00000000
