10
Lattice="16.2900001489832 0.0 0.0 0.0 16.2900001489832 0.0 0.0 0.0 29.13749961474497" Properties=species:S:1:pos:R:3:initial_magmoms:R:1 pbc="T T T"
Si      -0.87309514       0.66194416       2.01214831       0.00000000
Si      -1.86830012      -0.92018953      -1.15786596       0.00000000
Si       0.87379561       1.87929587      -1.19658970       0.00000000
Si       1.73434745      -1.78292423       0.24411397       0.00000000
Si      -0.48883032      -2.21180572      -2.55870953       0.00000000
Si       2.22692447       0.57546055      -2.60588314       0.00000000
Si       3.39203415      -0.91991260      -1.24288918       0.00000000
Si      -1.37916028      -1.17134875       3.33904091       0.00000000
Si       0.86793121      -3.55830618      -1.15180536       0.00000000
Si      -3.12689811      -2.33339917       0.33353696       0.00000000
