10
Lattice="16.2900001489832 0.0 0.0 0.0 16.2900001489832 0.0 0.0 0.0 29.13749961474497" Properties=species:S:1:pos:R:3:initial_magmoms:R:1 pbc="T T T"
Si       1.88206517       0.66487636      -1.27942761       0.00000000
Si      -1.25038783       1.92827990      -0.61963807       0.00000000
Si      -0.54361360      -2.14980761      -0.87022056       0.00000000
Si      -0.46219617      -0.15405453       2.35034727       0.00000000
H        2.38769048       0.65985904       1.72639685       0.00000000
Si       1.62308674      -0.28305504      -3.37791033       0.00000000
Si      -0.84657502       1.99084979       3.07732788       0.00000000
Si       0.07581366      -3.66070512       0.92141515       0.00000000
Si      -2.44723043      -1.46987929       2.47811520       0.00000000
Si       0.21436011       3.35036433      -1.80264969       0.00000000
