10
Lattice="16.2900001489832 0.0 0.0 0.0 16.2900001489832 0.0 0.0 0.0 29.13749961474497" Properties=species:S:1:pos:R:3:initial_magmoms:R:1 pbc="T T T"
Si       0.14664258       0.38773458       1.45457312       0.00000000
H       -1.97912099      -0.90455113      -0.18117697       0.00000000
Si       2.36814248      -0.03093471       1.83589558       0.00000000
Si      -2.13136733       1.36313092      -1.64731768       0.00000000
Si      -0.32246055       2.63065583       1.59183988       0.00000000
Si      -1.31810536      -1.03434985       2.63758474       0.00000000
Si      -2.90313867      -1.37398006       0.94597806       0.00000000
Si      -2.19225935       2.68638392       0.26439367       0.00000000
Si       1.81434764      -2.29775339       1.97779520       0.00000000
Si       1.55536921      -3.24568479      -0.12068752       0.00000000
