10
Lattice="16.2900001489832 0.0 0.0 0.0 16.2900001489832 0.0 0.0 0.0 29.13749961474497" Properties=species:S:1:pos:R:3:initial_magmoms:R:1 pbc="T T T"
Si       0.20160504       0.96062131      -2.11363422       0.00000000
Si      -2.37122129      -0.47231226      -0.18854876       0.00000000
Si       0.92098774       1.87357808       1.23918872       0.00000000
Si       1.33983622      -2.02147499       0.41879328       0.00000000
Si      -1.15074190       2.90600571       0.81456794       0.00000000
Si       3.11357289      -0.76308877       1.46380971       0.00000000
Si       1.74465902       0.61338367       3.04912278       0.00000000
Si       0.66145546      -0.92501137      -3.42179140       0.00000000
Si      -2.93024523      -0.54685530       2.04857019       0.00000000
Si      -1.20787093      -1.91681174       3.15923340       0.00000000
