10
Lattice="16.2900001489832 0.0 0.0 0.0 16.2900001489832 0.0 0.0 0.0 29.13749961474497" Properties=species:S:1:pos:R:3:initial_magmoms:R:1 pbc="T T T"
Si       1.37946979      -1.29161619      -1.40084357       0.00000000
Si       1.86830012       0.92018953       1.15786596       0.00000000
Si      -1.33307587       1.46877157      -1.34682264       0.00000000
Si      -1.25859799      -1.41320964       1.49140292       0.00000000
Si       0.99520498       1.58213368       3.17001427       0.00000000
Si      -2.66263310      -2.69478956       0.04443469       0.00000000
Si       2.73623132      -2.63811665       0.00606060       0.00000000
Si       0.04215852      -2.61074945      -2.77493891       0.00000000
Si      -2.67608864       0.11386710      -2.74973498       0.00000000
Si       2.73908208       0.10700901      -2.76319650       0.00000000
