10
Lattice="16.2900001489832 0.0 0.0 0.0 16.2900001489832 0.0 0.0 0.0 29.13749961474497" Properties=species:S:1:pos:R:3:initial_magmoms:R:1 pbc="T T T"
Si       1.13733523       0.09215253       2.13158292       0.00000000
Si      -1.99795223       1.36932112      -0.00448717       0.00000000
Si      -0.75106675      -0.75378718      -2.22458982       0.00000000
Si       2.56262879      -0.71128657      -0.58726630       0.00000000
Si      -1.14872194      -2.41865451      -0.58904369       0.00000000
H        2.52464051       0.45928026       1.64693889       0.00000000
Si       0.82531657      -3.44696403       0.09449291       0.00000000
H       -3.46908585      -0.83680102       0.78916004       0.00000000
Si      -1.05083533       3.47758923      -0.46448088       0.00000000
Si      -2.82473490      -2.19051795       1.01165399       0.00000000
