10
Lattice="16.2900001489832 0.0 0.0 0.0 16.2900001489832 0.0 0.0 0.0 29.13749961474497" Properties=species:S:1:pos:R:3:initial_magmoms:R:1 pbc="T T T"
H        1.38730528       0.36712773      -0.48464403       0.00000000
Si      -0.37110249       1.68112802       1.54108235       0.00000000
Si       0.42363774      -1.83963460       1.40128063       0.00000000
Si      -1.13733523      -0.09215253      -2.13158292       0.00000000
Si       1.42529356      -0.80343910      -2.71884923       0.00000000
Si       1.26400627      -3.06589483      -0.39548328       0.00000000
Si       0.09050724       3.56407284       0.28563491       0.00000000
Si       1.45746631       1.65512918       2.93904131       0.00000000
Si       3.01731528      -1.85430701      -1.29277258       0.00000000
Si      -2.03108609       0.94239280       3.03499110       0.00000000
