10
Lattice="16.2900001489832 0.0 0.0 0.0 16.2900001489832 0.0 0.0 0.0 29.13749961474497" Properties=species:S:1:pos:R:3:initial_magmoms:R:1 pbc="T T T"
H       -0.51443820      -0.76659112      -1.22080296       0.00000000
Si       1.16965459      -1.53402931       1.29726267       0.00000000
Si      -1.70997761       1.17819055       1.08187536       0.00000000
Si       1.62251659       1.43088103      -1.00116449       0.00000000
Si       2.48362229      -2.42504345      -0.36515115       0.00000000
Si      -0.22273317       2.41694732       2.56180102       0.00000000
Si       3.24089553      -0.37856331      -1.51255674       0.00000000
Si       2.60760548      -0.16780329       2.58076953       0.00000000
Si      -1.16507710      -0.35541522      -3.59973411       0.00000000
Si       0.45654354       2.81585685      -2.62234583       0.00000000
