10
Lattice="16.2900001489832 0.0 0.0 0.0 16.2900001489832 0.0 0.0 0.0 29.13749961474497" Properties=species:S:1:pos:R:3:initial_magmoms:R:1 pbc="T T T"
Si      -1.17683848       1.45894870      -1.43289482       0.00000000
Si       1.49095855      -1.14528475      -1.43513841       0.00000000
Si       0.69942745       1.65019331       1.60209628       0.00000000
Si      -1.58009743      -1.54738711       1.02094885       0.00000000
Si      -1.30697929       1.28155060       2.85011366       0.00000000
Si      -1.50232897      -1.05047695       3.30101647       0.00000000
Si      -2.53172666       0.12931002      -2.80206593       0.00000000
Si       2.64585440      -2.72251514      -0.19635761       0.00000000
Si       0.23535792      -2.57189780      -2.84064398       0.00000000
Si      -3.74573892      -0.60157342       0.69405524       0.00000000
