10
Lattice="16.2900001489832 0.0 0.0 0.0 16.2900001489832 0.0 0.0 0.0 29.13749961474497" Properties=species:S:1:pos:R:3:initial_magmoms:R:1 pbc="T T T"
Si       1.28855530       1.51573564       1.21576217       0.00000000
Si      -1.62251659      -1.43088103       1.00116449       0.00000000
Si      -1.16597305       1.38497581      -1.62118134       0.00000000
Si       1.61837893      -1.80944435      -0.51139226       0.00000000
H       -2.13695480      -2.19747215      -0.21963847       0.00000000
Si      -0.95384467      -0.43088679      -3.12275325       0.00000000
Si       1.36203949      -0.97135642      -2.92234552       0.00000000
Si       2.42173626      -0.17244594       2.36230617       0.00000000
Si      -0.53540343       2.50939307       2.28019349       0.00000000
Si      -0.45286200      -2.96491035       2.29842716       0.00000000
