10
Lattice="16.2900001489832 0.0 0.0 0.0 16.2900001489832 0.0 0.0 0.0 29.13749961474497" Properties=species:S:1:pos:R:3:initial_magmoms:R:1 pbc="T T T"
Si      -0.18738387       0.38320596      -1.47957309       0.00000000
Si      -1.10495071      -0.50684706       2.43432154       0.00000000
H        0.54705078       2.10424448       1.86946198       0.00000000
Si      -1.81221365       2.29609181      -1.42971883       0.00000000
Si      -1.03790107      -1.48362805      -2.70900075       0.00000000
Si       1.68643856       1.31699764      -2.65299848       0.00000000
Si      -0.37696689       1.63481554       2.99661701       0.00000000
Si       1.72064756      -3.02373354       0.62983619       0.00000000
Si      -2.49196440      -2.87306733      -1.39929928       0.00000000
Si      -1.84971323       3.64752651       0.56823952       0.00000000
