10
Lattice="16.2900001489832 0.0 0.0 0.0 16.2900001489832 0.0 0.0 0.0 29.13749961474497" Properties=species:S:1:pos:R:3:initial_magmoms:R:1 pbc="T T T"
H        0.50257908       1.03671190       0.97476591       0.00000000
Si      -2.01969938       0.76929526      -0.78321599       0.00000000
Si      -0.46160973      -1.88294483       1.25544745       0.00000000
Si       1.85005532       0.20455353      -1.39845429       0.00000000
H       -1.51407406       0.76427794       2.22260847       0.00000000
Si      -1.46590453       3.03611394      -0.92511561       0.00000000
H        1.29679804      -3.19694511      -0.77027894       0.00000000
Si       3.52339671      -0.21703167       0.20122357       0.00000000
Si       1.36695907      -1.90894367       2.65340640       0.00000000
Si      -0.09050724      -3.56407284      -0.28563491       0.00000000
