10
Lattice="16.2900001489832 0.0 0.0 0.0 16.2900001489832 0.0 0.0 0.0 29.13749961474497" Properties=species:S:1:pos:R:3:initial_magmoms:R:1 pbc="T T T"
Si       1.48563172       1.47729124      -1.15538927       0.00000000
Si      -1.31755150       1.33490035       1.50238776       0.00000000
Si      -1.57397239      -1.08045055      -1.51905440       0.00000000
Si       0.64363420      -1.90532729       1.43164191       0.00000000
H        1.88195114       0.80526358       1.99405392       0.00000000
H       -0.33622560      -1.60912621       2.55497993       0.00000000
H       -2.11361123       2.25689807       0.61008097       0.00000000
H        2.17390052      -2.44996715      -0.24455103       0.00000000
Si      -2.57399921      -2.50351238       0.09720270       0.00000000
H       -1.06994350       3.47423349      -0.74271487       0.00000000
