10
Lattice="16.2900001489832 0.0 0.0 0.0 16.2900001489832 0.0 0.0 0.0 29.13749961474497" Properties=species:S:1:pos:R:3:initial_magmoms:R:1 pbc="T T T"
Si       0.07776846       0.49691016       2.28006762       0.00000000
Si       0.06856461      -2.24186240      -0.65285482       0.00000000
Si      -2.16564149       0.94581370      -0.32689361       0.00000000
Si       1.58009743       1.54738711      -1.02094885       0.00000000
H        2.26885493      -1.89539039       1.52974787       0.00000000
Si       0.27311814       2.82893772       1.82916481       0.00000000
Si      -2.51380766       0.48376413      -2.56351722       0.00000000
Si       0.40325895       3.00633582      -2.45384367       0.00000000
Si       3.07105599       0.40210236      -2.45608725       0.00000000
Si       2.27952488       3.19758042       0.58114743       0.00000000
