10
Lattice="16.2900001489832 0.0 0.0 0.0 16.2900001489832 0.0 0.0 0.0 29.13749961474497" Properties=species:S:1:pos:R:3:initial_magmoms:R:1 pbc="T T T"
Si      -2.22149990       0.41866929      -0.38132246       0.00000000
Si      -0.55379485      -2.26681868       0.14189962       0.00000000
Si       1.21919248       0.48959595       1.95043509       0.00000000
Si       1.47675367       0.26665101      -1.83438043       0.00000000
H       -2.36814248       0.03093471      -1.83589558       0.00000000
H        1.96848362      -1.99940204       1.89988152       0.00000000
Si       1.46590453      -3.03611394       0.92511561       0.00000000
Si       3.37965375       0.73738315       1.04836724       0.00000000
Si       3.51130953      -0.49953285      -0.92424149       0.00000000
Si      -2.69060303       2.66159054      -0.24405570       0.00000000
