10
Lattice="16.2900001489832 0.0 0.0 0.0 16.2900001489832 0.0 0.0 0.0 29.13749961474497" Properties=species:S:1:pos:R:3:initial_magmoms:R:1 pbc="T T T"
Si      -0.22998222       1.97004746       1.18065148       0.00000000
Si      -1.21919248      -0.48959595      -1.95043509       0.00000000
Si       2.16046127       0.24778719      -0.90206785       0.00000000
Si      -0.71692291      -1.44730135       1.73848891       0.00000000
H        0.74929114      -2.48899799      -0.05055356       0.00000000
H       -1.26736201      -2.76143196       1.19728900       0.00000000
Si      -2.42953949       1.92888263       1.87135591       0.00000000
Si      -2.50105259      -0.26876871       2.67056839       0.00000000
Si       0.24671205      -3.52570989      -1.02531947       0.00000000
Si      -1.77298733      -2.75641464      -1.80853546       0.00000000
