10
Lattice="16.2900001489832 0.0 0.0 0.0 16.2900001489832 0.0 0.0 0.0 29.13749961474497" Properties=species:S:1:pos:R:3:initial_magmoms:R:1 pbc="T T T"
Si       1.81874594      -1.50820966       0.14189962       0.00000000
Si       1.11363328       2.01095165      -0.64548303       0.00000000
Si      -1.17962407      -1.33827238      -1.67998082       0.00000000
Si      -0.90872137      -0.37745559       2.45095906       0.00000000
Si      -2.68245803      -1.63584181       1.40594263       0.00000000
Si      -1.82589725      -3.10824606      -0.30812906       0.00000000
Si      -1.88353127       2.69996978      -1.70597147       0.00000000
Si       2.70117524       2.59858082       0.93234171       0.00000000
Si      -0.30923307       3.90429878      -0.28540181       0.00000000
Si       2.46066968      -2.28511235      -2.06220654       0.00000000
