10
Lattice="16.2900001489832 0.0 0.0 0.0 16.2900001489832 0.0 0.0 0.0 29.13749961474497" Properties=species:S:1:pos:R:3:initial_magmoms:R:1 pbc="T T T"
Si      -1.35018037       1.25058331       1.43790647       0.00000000
Si       1.35461125       1.33462342      -1.38146713       0.00000000
Si      -1.37525068      -1.36534636      -1.36436342       0.00000000
Si       1.22582251      -1.46368909       1.42966056       0.00000000
Si      -2.18877329      -0.59284198       2.69472338       0.00000000
Si       2.69192252       2.65375668      -0.00737179       0.00000000
Si      -2.70972749       2.64819365       0.00099067       0.00000000
Si       2.64751598      -2.74550034      -0.00786712       0.00000000
Si      -0.43697925      -2.42890418       2.92557979       0.00000000
Si      -0.00540828       2.68623080      -2.73333056       0.00000000
