10
Lattice="16.2900001489832 0.0 0.0 0.0 16.2900001489832 0.0 0.0 0.0 29.13749961474497" Properties=species:S:1:pos:R:3:initial_magmoms:R:1 pbc="T T T"
Si       1.57602493       0.47322173       1.64160673       0.00000000
Si      -1.97403851       1.02830952      -0.68353660       0.00000000
Si      -0.46112103      -2.24300270       0.45166038       0.00000000
Si       1.26175825       0.72633201      -1.83994569       0.00000000
Si       1.73731223       2.73567746      -0.68175922       0.00000000
Si      -0.37753704      -1.93508912       2.94148886       0.00000000
Si      -0.82531657       3.44696403      -0.09449291       0.00000000
Si      -2.53043975      -2.51195060      -0.52639807       0.00000000
Si       3.06885684      -0.81373438      -1.75486419       0.00000000
Si       1.89371252      -1.49709988       2.83560319       0.00000000
