10
Lattice="16.2900001489832 0.0 0.0 0.0 16.2900001489832 0.0 0.0 0.0 29.13749961474497" Properties=species:S:1:pos:R:3:initial_magmoms:R:1 pbc="T T T"
Si      -0.82761346       1.65743910      -1.40824449       0.00000000
Si       2.17789157      -0.67769659      -0.58627563       0.00000000
Si      -0.48824388       0.29960568       2.29111073       0.00000000
Si      -1.76251286      -1.55971864      -0.32616517       0.00000000
Si      -2.96090301       1.81599456      -0.42237719       0.00000000
Si      -2.48951927       1.60547237       1.95361107       0.00000000
Si       2.01826586      -2.94238128      -1.13237065       0.00000000
Si       3.57332556      -0.16755894       1.24594862       0.00000000
Si      -3.81664929      -0.38745765      -0.10148591       0.00000000
Si      -1.96555142      -2.93974230       1.56244014       0.00000000
