10
Lattice="16.2900001489832 0.0 0.0 0.0 16.2900001489832 0.0 0.0 0.0 29.13749961474497" Properties=species:S:1:pos:R:3:initial_magmoms:R:1 pbc="T T T"
Si       1.58754196       0.58762918       1.57782474       0.00000000
Si       1.06440490       0.22185351      -2.10565055       0.00000000
Si      -1.11363328      -2.01095165       0.64548303       0.00000000
Si      -1.42286635       1.89334713       0.36008122       0.00000000
Si      -2.99716455       0.68901814      -1.06048844       0.00000000
Si       0.31574907       3.45795978      -0.20754641       0.00000000
Si       1.40418172       2.54990793      -2.14312137       0.00000000
Si       3.30869451      -0.90618013       1.15975990       0.00000000
Si       0.62299477       0.09141948       3.60830054       0.00000000
H        3.48219930      -1.05251320      -0.47954497       0.00000000
