10
Lattice="16.2900001489832 0.0 0.0 0.0 16.2900001489832 0.0 0.0 0.0 29.13749961474497" Properties=species:S:1:pos:R:3:initial_magmoms:R:1 pbc="T T T"
Si      -1.55727514      -1.19847160       1.27417412       0.00000000
Si      -1.63955594       1.17305920      -1.21468408       0.00000000
Si       1.24473520       1.60640578       1.22332627       0.00000000
Si       1.33442794      -1.98337268      -0.61433504       0.00000000
Si       0.49814820      -1.95348053      -2.90835952       0.00000000
Si       2.49846092       0.21699909       2.71151532       0.00000000
Si      -0.67500874       1.66926890      -3.24515988       0.00000000
Si      -0.24506676      -2.53850330       2.70549551       0.00000000
Si       3.55546684      -1.01154385      -0.67852495       0.00000000
Si       1.04614381       0.17545959      -3.66322473       0.00000000
