10
Lattice="16.2900001489832 0.0 0.0 0.0 16.2900001489832 0.0 0.0 0.0 29.13749961474497" Properties=species:S:1:pos:R:3:initial_magmoms:R:1 pbc="T T T"
Si       1.40683699      -1.30005604      -1.38776083       0.00000000
Si      -1.35676153       1.34650046      -1.40690417       0.00000000
Si      -0.90212392      -1.85987819       1.16823891       0.00000000
Si       0.86641624       1.77538196       1.39591933       0.00000000
Si       2.52410294       2.63839358      -0.09108382       0.00000000
Si      -0.91554688      -1.16245441       3.41774129       0.00000000
Si      -2.73623132       2.63811665      -0.00606060       0.00000000
Si       2.56787417      -2.81106759       0.01754077       0.00000000
Si       0.01106091      -2.67178808      -2.75130840       0.00000000
Si      -0.86793121       3.55830618       1.15180536       0.00000000
