10
Lattice="16.2900001489832 0.0 0.0 0.0 16.2900001489832 0.0 0.0 0.0 29.13749961474497" Properties=species:S:1:pos:R:3:initial_magmoms:R:1 pbc="T T T"
H        1.23689971       0.12184594      -0.86756905       0.00000000
Si      -0.48306366      -2.25559650       0.26343213       0.00000000
Si       1.18907227       0.79780113       1.90369854       0.00000000
Si      -1.75485656       0.61473411      -1.52193902       0.00000000
H        2.02066049      -1.98296706      -1.15911887       0.00000000
H       -1.80898823       2.45625346       1.04804672       0.00000000
Si       1.94634551       2.84428127       0.75629294       0.00000000
Si      -0.66642391      -0.29331774      -3.45751398       0.00000000
H        3.27702512       1.49186916      -0.05078666       0.00000000
Si      -3.49347198      -0.94987854      -0.95431139       0.00000000
