10
Lattice="16.2900001489832 0.0 0.0 0.0 16.2900001489832 0.0 0.0 0.0 29.13749961474497" Properties=species:S:1:pos:R:3:initial_magmoms:R:1 pbc="T T T"
H       -1.35516511       0.10394649       0.64857160       0.00000000
Si       1.05003305      -1.90749386       0.73449809       0.00000000
Si       1.12332583       1.99804997       0.29629923       0.00000000
Si       0.60193180       0.82420885      -2.09848272       0.00000000
Si       0.32536017      -3.19758042      -1.20130997       0.00000000
Si       0.26036307       2.84946312       2.33665264       0.00000000
Si       0.46126764      -2.38151657       2.99580116       0.00000000
Si      -3.55545543      -0.24252552      -1.53403108       0.00000000
Si       3.42852375       1.84309949       0.42001706       0.00000000
Si       3.38569734      -1.79102036       1.12499886       0.00000000
