10
Lattice="16.2900001489832 0.0 0.0 0.0 16.2900001489832 0.0 0.0 0.0 29.13749961474497" Properties=species:S:1:pos:R:3:initial_magmoms:R:1 pbc="T T T"
Si       1.49211514      -1.23211045      -1.37928182       0.00000000
Si      -1.26280570       1.46763127      -1.38289487       0.00000000
Si       0.85051720       1.86683402       1.22942766       0.00000000
Si      -1.45406333      -1.38943927       1.30970147       0.00000000
H        1.03790107       1.48362805       2.70900075       0.00000000
Si       0.11324808      -2.55658520      -2.76908228       0.00000000
Si      -2.58212998       0.13914918      -2.77336549       0.00000000
Si      -2.58610268       2.84651463       0.03531465       0.00000000
Si      -2.78589954      -2.69070077      -0.06576334       0.00000000
Si       2.57395034      -2.90007615      -0.12316421       0.00000000
