10
Lattice="16.2900001489832 0.0 0.0 0.0 16.2900001489832 0.0 0.0 0.0 29.13749961474497" Properties=species:S:1:pos:R:3:initial_magmoms:R:1 pbc="T T T"
Si      -1.52660107       0.44556408      -1.71019640       0.00000000
Si       1.78044815       0.83694763      -1.26963741       0.00000000
Si      -0.06784785      -2.32300289       0.42735971       0.00000000
Si      -0.10801899       1.56494773       1.77715438       0.00000000
H        1.96550255      -0.76411504       1.39600674       0.00000000
H        2.11941047      -0.34932276       2.04006204       0.00000000
Si       1.16903557       3.07900551      -1.51453809       0.00000000
Si       3.56768108       1.02260476       0.14513389       0.00000000
H        0.73287082      -1.33817464       3.39658747       0.00000000
Si       0.75621439       3.55801296       0.81302365       0.00000000
