10
Lattice="16.2900001489832 0.0 0.0 0.0 16.2900001489832 0.0 0.0 0.0 29.13749961474497" Properties=species:S:1:pos:R:3:initial_magmoms:R:1 pbc="T T T"
Si      -1.35488818      -1.32963868      -1.36917111       0.00000000
Si       1.30135924       1.33623613      -1.43461393       0.00000000
Si       1.17683848      -1.45894870       1.43289482       0.00000000
Si       1.87626593       0.19124460       3.03499110       0.00000000
Si       2.66779703      -2.60423345      -0.00224359       0.00000000
Si       2.07156674       3.12658860      -0.14921314       0.00000000
Si      -2.65496051       0.07737750      -2.73974081       0.00000000
Si       0.03930777      -2.65629629      -2.75401819       0.00000000
Si      -2.91706662      -2.52257168      -0.10967355       0.00000000
Si      -0.40325895      -3.00633582       2.45384367       0.00000000
