10
Lattice="16.2900001489832 0.0 0.0 0.0 16.2900001489832 0.0 0.0 0.0 29.13749961474497" Properties=species:S:1:pos:R:3:initial_magmoms:R:1 pbc="T T T"
Si      -1.03584853       1.72131545       1.17625172       0.00000000
Si       2.08235072       0.43854309       0.98228339       0.00000000
Si      -0.61328593      -2.19489833       0.78662508       0.00000000
Si      -0.10169847       0.28512387      -2.40885537       0.00000000
Si       2.69376329      -1.80351479       1.22718407       0.00000000
Si      -0.48163014      -3.43181433      -1.18598365       0.00000000
Si      -3.39068208       0.97541263      -1.20769108       0.00000000
Si       0.91331515      -2.64046241       2.49682148       0.00000000
Si       3.12694698       2.05672655      -0.45792494       0.00000000
Si      -3.30709809       1.28332621       1.28213740       0.00000000
