10
Lattice="16.2900001489832 0.0 0.0 0.0 16.2900001489832 0.0 0.0 0.0 29.13749961474497" Properties=species:S:1:pos:R:3:initial_magmoms:R:1 pbc="T T T"
H        0.17350479      -0.14633307      -1.63930487       0.00000000
H        0.78257161       1.76643875      -1.00448616       0.00000000
Si      -1.72115255       1.49380930       0.41806484       0.00000000
Si      -0.54799561      -2.12894012       0.75486520       0.00000000
Si       1.92777328       0.36991332       1.27059895       0.00000000
Si      -0.10580355       0.11292228      -3.45101632       0.00000000
Si       1.78387068       2.50942565      -1.87837805       0.00000000
Si      -3.30869451       0.90618013      -1.15975990       0.00000000
Si       3.68207760       0.19349262      -0.27974913       0.00000000
Si      -2.60358185      -2.61298118      -0.37237725       0.00000000
