10
Lattice="16.2900001489832 0.0 0.0 0.0 16.2900001489832 0.0 0.0 0.0 29.13749961474497" Properties=species:S:1:pos:R:3:initial_magmoms:R:1 pbc="T T T"
Si       1.33789380       1.33094188      -1.37094849       0.00000000
Si      -1.40683699       1.30005604       1.38776083       0.00000000
Si       1.16103718      -1.51101154       1.40530161       0.00000000
Si      -1.39577608      -1.37173204      -1.36354757       0.00000000
Si      -2.30896091      -0.55982215       2.55599974       0.00000000
Si      -0.74160226      -2.39490695       2.60151252       0.00000000
Si       2.60356068      -2.74929591      -0.02430067       0.00000000
Si       2.66179091       0.00338832      -2.72458931       0.00000000
Si       2.68518661       2.71029927      -0.02310604       0.00000000
Si      -2.76359853       2.64655650      -0.01914334       0.00000000
