10
Lattice="16.2900001489832 0.0 0.0 0.0 16.2900001489832 0.0 0.0 0.0 29.13749961474497" Properties=species:S:1:pos:R:3:initial_magmoms:R:1 pbc="T T T"
Si      -1.43782057       1.55683531       1.10224247       0.00000000
Si      -1.69829768      -0.94170862      -1.39693914       0.00000000
Si       1.28935351      -1.28966302       1.55935157       0.00000000
Si       1.35703846       1.48594123      -1.31800566       0.00000000
Si       2.08171134       2.77602780       0.61780240       0.00000000
Si      -1.93929194      -3.06126570      -0.39157886       0.00000000
Si       2.95792845      -2.32541381       0.31011041       0.00000000
Si      -3.19112958       0.34524749       1.99953177       0.00000000
Si      -3.50539626       0.59835777      -1.48202064       0.00000000
Si       2.48425272       0.17477541       2.95827206       0.00000000
