10
Lattice="16.2900001489832 0.0 0.0 0.0 16.2900001489832 0.0 0.0 0.0 29.13749961474497" Properties=species:S:1:pos:R:3:initial_magmoms:R:1 pbc="T T T"
Si       0.33977682       2.32805442      -0.03747082       0.00000000
Si      -1.39543399      -0.51013764      -1.83222425       0.00000000
Si      -1.06440490      -0.22185351       2.10565055       0.00000000
Si       2.13848606      -1.01511136      -0.18560587       0.00000000
H        2.41779440      -1.27436671       1.62610558       0.00000000
Si       2.67657734       2.58300921      -0.08560597       0.00000000
Si       0.52313706       0.36577566       3.68347529       0.00000000
Si      -3.57332556       0.16755894      -1.24594862       0.00000000
Si      -0.74865583       3.23610627       1.89810414       0.00000000
H        3.02686122       0.63840511       2.26092428       0.00000000
