10
Lattice="16.2900001489832 0.0 0.0 0.0 16.2900001489832 0.0 0.0 0.0 29.13749961474497" Properties=species:S:1:pos:R:3:initial_magmoms:R:1 pbc="T T T"
Si       0.53029815      -0.30538863       2.24079027       0.00000000
Si      -2.09968980      -0.90086959      -0.45023264       0.00000000
Si       1.72222117      -1.02086173      -1.29073296       0.00000000
Si      -0.34751946       2.37218240       0.14300685       0.00000000
Si      -0.95039445      -0.66590263      -2.89856932       0.00000000
Si       2.58837677       0.77543659       1.85364031       0.00000000
Si      -2.10530985       2.03931254       1.74291781       0.00000000
Si       0.16183464       1.38948814      -3.15209471       0.00000000
Si       2.37220847       1.02190429      -2.32403611       0.00000000
Si       1.95678088       2.78112657       0.76733605       0.00000000
