10
Lattice="16.2900001489832 0.0 0.0 0.0 16.2900001489832 0.0 0.0 0.0 29.13749961474497" Properties=species:S:1:pos:R:3:initial_magmoms:R:1 pbc="T T T"
Si       1.35213517      -1.34214940       1.34353011       0.00000000
Si      -1.38183184      -1.31988097      -1.37401376       0.00000000
Si       1.29875284       1.38681658      -1.41290358       0.00000000
Si      -1.38717496       1.38246715       1.35772007       0.00000000
Si      -2.24062436       0.57883258      -2.54761980       0.00000000
Si      -0.51974874       2.33689826      -2.65473216       0.00000000
Si       2.68851791      -2.69656517      -0.02412585       0.00000000
Si       0.01982493      -2.70389567       2.68516628       0.00000000
Si       2.67296096       0.00658116       2.72671635       0.00000000
Si       2.61798221       0.01451439      -2.80983690       0.00000000
