10
Lattice="16.2900001489832 0.0 0.0 0.0 16.2900001489832 0.0 0.0 0.0 29.13749961474497" Properties=species:S:1:pos:R:3:initial_magmoms:R:1 pbc="T T T"
Si       0.47530962       1.75909196       1.44661858       0.00000000
Si       1.31751892       0.14331942      -1.93671132       0.00000000
Si       0.63159589      -2.00568998       1.08630426       0.00000000
Si      -2.30430034      -0.40894416      -0.62432920       0.00000000
H        0.65697571       1.15647598      -3.05323117       0.00000000
Si      -1.95678088      -2.78112657      -0.76733605       0.00000000
Si      -1.31676958       3.14403519       0.88254573       0.00000000
Si       0.41542758      -1.75922228      -3.09137216       0.00000000
Si      -1.42648273      -3.08651520       1.47345422       0.00000000
Si       2.84653092       2.23140422       1.63516734       0.00000000
