10
Lattice="16.2900001489832 0.0 0.0 0.0 16.2900001489832 0.0 0.0 0.0 29.13749961474497" Properties=species:S:1:pos:R:3:initial_magmoms:R:1 pbc="T T T"
Si       1.39245292       1.72789172       0.64446322       0.00000000
Si      -1.88096396       0.63302452       1.20334960       0.00000000
Si      -0.32296554      -0.51279780      -2.31494521       0.00000000
Si       0.91880488      -1.92680239       1.09874597       0.00000000
H       -0.61423075      -2.59578383       0.45597273       0.00000000
Si      -2.49848366       2.09845664      -0.47167784       0.00000000
Si       2.17394939      -2.42117132      -0.90591400       0.00000000
Si      -2.43189014      -1.49738170      -1.95818566       0.00000000
Si       1.97938163       1.05547309       2.78338879       0.00000000
Si      -1.93962100      -3.07194054      -0.28831556       0.00000000
