10
Lattice="16.2900001489832 0.0 0.0 0.0 16.2900001489832 0.0 0.0 0.0 29.13749961474497" Properties=species:S:1:pos:R:3:initial_magmoms:R:1 pbc="T T T"
Si      -1.34580651      -1.62836470       0.92648508       0.00000000
Si       1.99005158      -0.57111112       1.04341386       0.00000000
Si       0.01912446      -0.68338180      -2.24116906       0.00000000
Si      -1.01268741       1.93609910       0.89539536       0.00000000
H        0.31270284       2.41225580       1.63968365       0.00000000
H       -1.83481439      -1.02982123       2.22677513       0.00000000
Si       1.56880846       0.24535998       3.24757829       0.00000000
Si       2.00573885      -2.92166040       0.78799454       0.00000000
Si      -3.13303944      -1.81402184      -0.48828622       0.00000000
Si      -1.03128081       1.01046871      -3.42263639       0.00000000
