10
Lattice="16.2900001489832 0.0 0.0 0.0 16.2900001489832 0.0 0.0 0.0 29.13749961474497" Properties=species:S:1:pos:R:3:initial_magmoms:R:1 pbc="T T T"
H        0.60841522       1.39287646       0.23790768       0.00000000
Si       1.79207921      -1.38494323       0.56407285       0.00000000
Si      -0.44307171       0.50753124      -2.24629726       0.00000000
Si      -1.75430433       0.17642070       1.55034808       0.00000000
Si      -0.67178657       2.19331820       2.04457835       0.00000000
Si       1.93810277       0.89335990      -2.21086606       0.00000000
H       -2.89950600       1.57294612      -0.72473703       0.00000000
Si       1.23305527      -1.45948627       2.80119180       0.00000000
Si      -1.89820693       2.31593303      -1.59862892       0.00000000
Si       1.36334269       1.02866464       2.98388392       0.00000000
