10
Lattice="16.2900001489832 0.0 0.0 0.0 16.2900001489832 0.0 0.0 0.0 29.13749961474497" Properties=species:S:1:pos:R:3:initial_magmoms:R:1 pbc="T T T"
Si      -1.22432383      -1.45261189       1.34379234       0.00000000
Si       1.52169778       1.27060372       1.31463445       0.00000000
Si       1.52230051      -1.47769849      -1.18027270       0.00000000
Si      -1.72237430       1.36995643      -1.11066321       0.00000000
Si      -2.47811627      -0.06379164       2.75045759       0.00000000
Si       2.54770715      -0.10466325      -2.74044011       0.00000000
Si      -2.56718999      -2.77004937      -0.11719102       0.00000000
Si       0.20246841       2.64290591       2.71156777       0.00000000
Si      -1.16335036       1.44449947      -3.34778216       0.00000000
Si       0.22380831      -2.77348656       2.71283816       0.00000000
