10
Lattice="16.28999089631971 0.0 0.0 0.0 16.28999089631971 0.0 0.0 0.0 34.185847837958455" Properties=species:S:1:pos:R:3:initial_magmoms:R:1 pbc="T T T"
Si       1.80900939      -0.76712868       1.32039492       0.00000000
Si      -0.45251502       2.27418174      -0.47826028       0.00000000
Si      -2.10103763      -0.88233156       0.69640030       0.00000000
Si       0.60384261      -0.84778047      -2.15589751       0.00000000
Si      -2.13578420       1.59399279      -2.05559618       0.00000000
Si      -0.30690849       0.89889849      -3.45383232       0.00000000
Si      -1.39500783      -3.10917456       1.34883757       0.00000000
Si      -3.52954031      -0.01322748      -1.06533417       0.00000000
Si       2.23166973      -2.99703420       0.55011897       0.00000000
Si       1.12935801      -0.73981035       3.53533143       0.00000000
