10
Lattice="16.28999089631971 0.0 0.0 0.0 16.28999089631971 0.0 0.0 0.0 34.185847837958455" Properties=species:S:1:pos:R:3:initial_magmoms:R:1 pbc="T T T"
Si      -1.35459495       1.35913171       1.35560637       0.00000000
Si      -1.35545832      -1.35679142      -1.35717892       0.00000000
Si       1.35935163      -1.35615783       1.35923007       0.00000000
Si       1.35938421       1.35800770      -1.35745240       0.00000000
Si      -0.00288333       2.68359016       2.70355510       0.00000000
Si      -2.71331779       2.71509503      -0.00153836       0.00000000
Si       0.00193851      -2.71383159      -2.71463132       0.00000000
Si      -2.71330964       0.00119894      -2.71517830       0.00000000
Si       2.71627605       2.71468777      -0.00010256       0.00000000
Si       0.00171045       2.71647967      -2.71456295       0.00000000
