10
Lattice="16.28999089631971 0.0 0.0 0.0 16.28999089631971 0.0 0.0 0.0 34.185847837958455" Properties=species:S:1:pos:R:3:initial_magmoms:R:1 pbc="T T T"
Si      -2.11017402      -1.05396693       0.10700176       0.00000000
Si       1.56967182      -1.52570904      -1.00848307       0.00000000
Si      -0.33840846       2.18906975      -0.96616097       0.00000000
Si       1.12023072       0.33827488       2.13090764       0.00000000
Si      -2.09375370      -2.10735978       2.27472759       0.00000000
Si       1.79664039       3.24076844      -0.94260691       0.00000000
Si       3.11964903      -0.34577284      -2.39290813       0.00000000
Si       0.62030691      -2.76233181      -2.79674577       0.00000000
Si       3.36543255       1.11848769       1.81971370       0.00000000
Si      -2.77050546      -2.23963458      -1.87041134       0.00000000
