10
Lattice="16.28999089631971 0.0 0.0 0.0 16.28999089631971 0.0 0.0 0.0 34.185847837958455" Properties=species:S:1:pos:R:3:initial_magmoms:R:1 pbc="T T T"
Si      -1.48595751       0.21299175      -1.86282208       0.00000000
Si      -0.91641024      -0.25298370       2.19996310       0.00000000
Si       1.32089094       2.01554541      -0.18142440       0.00000000
Si       0.93390570      -2.23883244      -0.32835525       0.00000000
Si      -2.18010699      -2.01390012      -2.08335510       0.00000000
Si      -0.10298538       1.22704425      -3.53085308       0.00000000
Si      -0.00747711      -2.88124488      -2.42039357       0.00000000
Si       3.49221762       1.32020676       0.52694095       0.00000000
Si       0.27911286      -2.05965873       3.17990097       0.00000000
Si      -3.22884742      -0.74635893       2.06284358       0.00000000
