10
Lattice="16.28999089631971 0.0 0.0 0.0 16.28999089631971 0.0 0.0 0.0 34.185847837958455" Properties=species:S:1:pos:R:3:initial_magmoms:R:1 pbc="T T T"
Si      -1.99276777      -1.29952009       0.14412762       0.00000000
Si       1.35419910      -1.76020780       1.07548737       0.00000000
Si       1.20012828       0.26161740      -2.17128115       0.00000000
Si       0.15138786       1.52915859       1.97491753       0.00000000
Si      -1.47559285       1.87297533      -0.94619643       0.00000000
Si      -1.36011304      -3.05506637       1.52219410       0.00000000
Si       1.89427776       2.48850927      -1.95074813       0.00000000
Si      -3.48941152       0.07332129       1.24392114       0.00000000
Si       0.46876267      -3.75016067       0.12395795       0.00000000
Si       2.46382503       2.02253382       2.11203705       0.00000000
