10
Lattice="16.28999089631971 0.0 0.0 0.0 16.28999089631971 0.0 0.0 0.0 34.185847837958455" Properties=species:S:1:pos:R:3:initial_magmoms:R:1 pbc="T T T"
Si      -1.24721846       1.74342096      -0.85085204       0.00000000
Si      -0.81133485      -0.83844141       2.05176736       0.00000000
Si      -0.01324377      -1.54210004      -1.79790311       0.00000000
Si       2.24500635       0.73871892       0.29591286       0.00000000
Si       1.11174363      -2.18518037       2.70266627       0.00000000
Si       2.96215731      -0.74173420       2.01652173       0.00000000
Si      -0.18501205       2.36193597      -2.92251558       0.00000000
Si      -0.72350406       1.06236864       3.57091892       0.00000000
Si      -3.04705169      -1.72849022       1.65025435       0.00000000
Si      -3.44801375       1.14600150      -1.38257902       0.00000000
