10
Lattice="16.28999089631971 0.0 0.0 0.0 16.28999089631971 0.0 0.0 0.0 34.185847837958455" Properties=species:S:1:pos:R:3:initial_magmoms:R:1 pbc="T T T"
Si       1.38072411      -1.31676957      -1.41481629       0.00000000
Si       1.65959262       0.89614548       1.44821588       0.00000000
Si      -1.32701598       1.40892210      -1.41020120       0.00000000
Si      -1.39602042      -1.48045149       1.38240809       0.00000000
Si       0.33102909      -2.58967017       2.50045687       0.00000000
Si       2.66844861       2.57758299       0.00109395       0.00000000
Si       3.47183883      -0.82155357       1.14666235       0.00000000
Si      -2.73096963       2.71826343       0.00205115       0.00000000
Si       0.02309922      -2.65649175      -2.79264347       0.00000000
Si       2.73052980      -2.72971530       0.02300709       0.00000000
