10
Lattice="16.28999089631971 0.0 0.0 0.0 16.28999089631971 0.0 0.0 0.0 34.185847837958455" Properties=species:S:1:pos:R:3:initial_magmoms:R:1 pbc="T T T"
Si      -1.69660350       1.54745226      -0.26258164       0.00000000
Si       0.58746627      -1.31501025      -1.82781575       0.00000000
Si      -0.47671056      -1.38284181       1.84884006       0.00000000
Si       2.09153826       1.16051589       0.19315015       0.00000000
Si      -3.12419394       0.25141986      -1.63610141       0.00000000
Si       1.70017101      -1.86285924       2.53587342       0.00000000
Si      -2.33653986       1.87396902       1.99785625       0.00000000
Si      -1.42343649       0.14657742       3.31561886       0.00000000
Si       3.13238781      -0.07573221       1.88600009       0.00000000
Si       2.33598600      -2.76410349      -1.03740432       0.00000000
