10
Lattice="16.28999089631971 0.0 0.0 0.0 16.28999089631971 0.0 0.0 0.0 34.185847837958455" Properties=species:S:1:pos:R:3:initial_magmoms:R:1 pbc="T T T"
Si      -0.94672593       1.52941923       1.46677881       0.00000000
Si       2.17688157      -0.48001743       0.68703337       0.00000000
Si       0.47671056       1.38284181      -1.84884006       0.00000000
Si      -1.54580697      -1.79240499       0.19479107       0.00000000
Si       2.01534993      -0.86697009       2.98152039       0.00000000
Si       2.81318526      -2.31293565      -0.66812858       0.00000000
Si      -1.28399409      -2.44669284       2.49355132       0.00000000
Si      -1.85982930       3.25681083       0.14901619       0.00000000
Si      -1.21989294       2.93029407      -2.11142170       0.00000000
Si      -0.85260231      -3.49593174      -1.29885783       0.00000000
