10
Lattice="16.28999089631971 0.0 0.0 0.0 16.28999089631971 0.0 0.0 0.0 34.185847837958455" Properties=species:S:1:pos:R:3:initial_magmoms:R:1 pbc="T T T"
Si      -1.58423508      -0.73713879      -1.51563041       0.00000000
Si       1.57879422      -1.59554034       0.62002907       0.00000000
Si      -0.31846950       1.10568375       2.03091398       0.00000000
Si       1.41133302       1.21440321      -1.44770309       0.00000000
Si       2.91859785       1.97897436       0.22108000       0.00000000
Si       3.58044426      -0.26598312       0.23536969       0.00000000
Si       1.76816547       2.09859183       2.38237888       0.00000000
Si      -2.17197828       1.17594252      -2.77900331       0.00000000
Si       2.38975929      -0.54793044      -2.89588479       0.00000000
Si       1.39369095      -3.46261869      -0.78856539       0.00000000
