10
Lattice="16.28999089631971 0.0 0.0 0.0 16.28999089631971 0.0 0.0 0.0 34.185847837958455" Properties=species:S:1:pos:R:3:initial_magmoms:R:1 pbc="T T T"
Si      -1.58514732      -0.86268582       1.46022678       0.00000000
Si      -1.51534467       0.47571687      -1.74180411       0.00000000
Si       0.97147044       1.77867252       1.31988354       0.00000000
Si       1.73457549      -1.71479943      -1.26077477       0.00000000
Si       2.94549264       0.27953640      -1.46961623       0.00000000
Si      -2.47837689      -2.49782715      -0.02249430       0.00000000
Si      -0.24130377      -2.16700983       2.80587139       0.00000000
Si      -0.07610688       0.56969388      -3.51957175       0.00000000
Si       2.46808161       0.53908497       2.76118362       0.00000000
Si       1.11223233      -3.49749558       1.43320286       0.00000000
