10
Lattice="16.28999089631971 0.0 0.0 0.0 16.28999089631971 0.0 0.0 0.0 34.185847837958455" Properties=species:S:1:pos:R:3:initial_magmoms:R:1 pbc="T T T"
Si      -1.35690813      -1.35635427      -1.35765752       0.00000000
Si       1.35863487      -1.35454608       1.35970867       0.00000000
Si       1.35760860       1.35856851      -1.35769171       0.00000000
Si      -1.35715248       1.35873261       1.35933263       0.00000000
Si       0.00001629      -2.71381626      -2.71480225       0.00000000
Si      -2.71456560       0.00105885      -2.71452876       0.00000000
Si       2.71419093      -2.71502172       0.00054697       0.00000000
Si      -2.71513575      -2.71415835       0.00034186       0.00000000
Si       0.00068418       2.71511036      -2.71428946       0.00000000
Si       2.71492398       0.00156384      -2.71459714       0.00000000
