10
Lattice="16.28999089631971 0.0 0.0 0.0 16.28999089631971 0.0 0.0 0.0 34.185847837958455" Properties=species:S:1:pos:R:3:initial_magmoms:R:1 pbc="T T T"
Si      -1.64460582      -1.79794359       0.06813243       0.00000000
Si       1.97996805      -1.42011333       0.20716635       0.00000000
Si      -0.72068589       1.34278470       1.94893627       0.00000000
Si      -0.22413411       1.69047846      -2.04458833       0.00000000
Si      -2.59162497      -1.20071961      -2.02390588       0.00000000
Si      -1.20472695       0.13597263      -3.50275230       0.00000000
Si      -1.51668045      -0.35487765       3.41916785       0.00000000
Si       0.76738932      -3.21734016       1.85393375       0.00000000
Si      -2.94427089      -1.65091005       2.04564809       0.00000000
Si      -2.85597909       2.37824226       1.46896670       0.00000000
