10
Lattice="16.28999089631971 0.0 0.0 0.0 16.28999089631971 0.0 0.0 0.0 34.185847837958455" Properties=species:S:1:pos:R:3:initial_magmoms:R:1 pbc="T T T"
Si       1.39661663      -1.27749281       1.36403660       0.00000000
Si      -1.34315983       1.41371462       1.36108636       0.00000000
Si      -1.06384289      -1.79297907      -1.19448872       0.00000000
Si       0.68125757       1.79750702      -1.58814004       0.00000000
Si      -0.22923940       0.26452354      -3.43913381       0.00000000
Si      -2.42997671      -0.23865013      -2.48192953       0.00000000
Si       2.57415557       2.73944369      -0.13184121       0.00000000
Si       0.01063248      -2.63225616       2.71341431       0.00000000
Si       2.68217456      -2.68787022      -0.03177918       0.00000000
Si      -2.78232941       2.62251407      -0.03726259       0.00000000
