10
Lattice="16.28999089631971 0.0 0.0 0.0 16.28999089631971 0.0 0.0 0.0 34.185847837958455" Properties=species:S:1:pos:R:3:initial_magmoms:R:1 pbc="T T T"
Si      -0.07185519       1.97215604      -1.33102673       0.00000000
Si       0.97246413      -0.34717248       2.19008338       0.00000000
Si      -2.41010550      -0.37493064      -0.30333120       0.00000000
Si       1.14026742      -1.53688005      -1.58188262       0.00000000
Si      -0.76432680       0.88165294      -3.34023269       0.00000000
Si       2.92993569      -2.10072582      -0.04143327       0.00000000
Si      -2.35364436      -2.73875625       0.15397314       0.00000000
Si      -0.46841895      -3.26607984      -1.52123689       0.00000000
Si      -1.77502356       3.22606250      -0.22108000       0.00000000
Si      -2.61474048      -0.56179323      -2.65408815       0.00000000
