10
Lattice="16.28999089631971 0.0 0.0 0.0 16.28999089631971 0.0 0.0 0.0 34.185847837958455" Properties=species:S:1:pos:R:3:initial_magmoms:R:1 pbc="T T T"
Si       1.83397707       1.04953831       1.05894141       0.00000000
Si      -1.54997721      -1.17993620       1.38442505       0.00000000
Si       0.77064732      -1.69629662      -1.54126981       0.00000000
Si      -0.99924489       1.79268648      -1.38008345       0.00000000
Si      -2.49934212      -2.41655897      -0.40383765       0.00000000
Si       0.73746459       2.73063210       2.28101779       0.00000000
Si      -0.00899208      -0.72788870      -3.63122279       0.00000000
Si       0.19187991       1.65332553      -3.34830055       0.00000000
Si       2.76182289       2.54468175      -0.48981510       0.00000000
Si      -0.60385401      -3.61670843      -1.15370464       0.00000000
