10
Lattice="16.28999089631971 0.0 0.0 0.0 16.28999089631971 0.0 0.0 0.0 34.185847837958455" Properties=species:S:1:pos:R:3:initial_magmoms:R:1 pbc="T T T"
Si      -0.31649841       2.05871391       1.00390217       0.00000000
Si       0.08206902       0.52256691      -2.27418061       0.00000000
Si      -2.13504885      -1.05169869      -0.02355406       0.00000000
Si       2.06047323      -0.85590918       0.83071657       0.00000000
Si       0.32376375      -1.79385480      -2.83038467       0.00000000
Si       1.21257873       3.37014036      -0.29129777       0.00000000
Si       1.61543043       2.27688588      -2.34583419       0.00000000
Si      -2.52053541       2.65025268       0.66337675       0.00000000
Si      -2.08585305       1.40817276      -2.78891721       0.00000000
Si      -3.59139114       0.56971017       1.01713210       0.00000000
