10
Lattice="16.28999089631971 0.0 0.0 0.0 16.28999089631971 0.0 0.0 0.0 34.185847837958455" Properties=species:S:1:pos:R:3:initial_magmoms:R:1 pbc="T T T"
Si       1.40447493      -1.20642111       1.47094265       0.00000000
Si       0.92923047       1.85347620      -1.17061331       0.00000000
Si      -1.81222992      -1.01002887      -1.27175326       0.00000000
Si      -1.29034719       1.48989969       1.50019891       0.00000000
Si       1.15766514       0.75321702      -3.22328766       0.00000000
Si      -3.45040119       0.86249034      -0.99786494       0.00000000
Si      -2.62109358       2.76104097       0.11319282       0.00000000
Si       2.66971923      -2.71772586       0.08840123       0.00000000
Si       0.03328047      -2.54409075       2.84119766       0.00000000
Si      -2.75467158      -2.64003885       0.11805064       0.00000000
