10
Lattice="16.28999089631971 0.0 0.0 0.0 16.28999089631971 0.0 0.0 0.0 34.185847837958455" Properties=species:S:1:pos:R:3:initial_magmoms:R:1 pbc="T T T"
Si      -1.35120663      -1.35581670      -1.38360459       0.00000000
Si       1.36366848       1.36018242      -1.37926299       0.00000000
Si      -1.33846785       1.42513065       1.40818423       0.00000000
Si       1.30438917      -1.39025376       1.48547848       0.00000000
Si       0.21032019       2.52910395       2.84905015       0.00000000
Si       2.69936703      -2.69727051      -0.01760572       0.00000000
Si      -2.69216685      -2.71933531      -0.00379463       0.00000000
Si      -2.69285103       2.72355768      -0.03363889       0.00000000
Si       2.73522132       2.71528236      -0.00105976       0.00000000
Si      -2.70959715       0.00242721      -2.74239025       0.00000000
