10
Lattice="16.28999089631971 0.0 0.0 0.0 16.28999089631971 0.0 0.0 0.0 34.185847837958455" Properties=species:S:1:pos:R:3:initial_magmoms:R:1 pbc="T T T"
Si      -1.35438318       1.29842703      -1.44182312       0.00000000
Si       1.54878804       1.10397330       1.44086592       0.00000000
Si       1.33846785      -1.42513065      -1.40818423       0.00000000
Si      -1.90832463      -0.90686430       1.19148002       0.00000000
Si       0.29489787       2.71995759       2.49604689       0.00000000
Si       2.69439858       2.57991246       0.01859711       0.00000000
Si      -2.78511759       2.57984730      -0.12259052       0.00000000
Si      -0.01303200       2.65313601      -2.79705345       0.00000000
Si       2.64285702      -2.81538441       0.07729425       0.00000000
Si       2.70213633      -0.06494823      -2.78744722       0.00000000
