10
Lattice="16.28999089631971 0.0 0.0 0.0 16.28999089631971 0.0 0.0 0.0 34.185847837958455" Properties=species:S:1:pos:R:3:initial_magmoms:R:1 pbc="T T T"
Si       1.53336141       1.75431897      -0.07165358       0.00000000
Si      -0.08206902      -0.52256691       2.27418061       0.00000000
Si       0.24169473      -2.31642171      -0.55620406       0.00000000
Si      -2.16792207       0.88560585      -0.51473660       0.00000000
Si      -3.16948014      -1.24025544       0.08679792       0.00000000
Si      -2.21711787      -1.57426560       2.25062655       0.00000000
Si      -1.95605433      -2.71763464      -1.31321589       0.00000000
Si      -0.39856743       1.53614700       3.27808278       0.00000000
Si       1.13050971       2.84757345       1.98288284       0.00000000
Si       3.68048115       0.82886778       0.15113572       0.00000000
