10
Lattice="16.28999089631971 0.0 0.0 0.0 16.28999089631971 0.0 0.0 0.0 34.185847837958455" Properties=species:S:1:pos:R:3:initial_magmoms:R:1 pbc="T T T"
Si       1.99956492       1.27413864       0.00704229       0.00000000
Si       0.62983656      -1.70463447       1.52889453       0.00000000
Si      -0.06553467      -0.18583632      -2.38590003       0.00000000
Si      -2.15700777       0.99002475       0.68905033       0.00000000
Si      -2.08446840       2.27278080      -1.31783098       0.00000000
Si      -2.26957167       0.40570245      -2.72642545       0.00000000
Si       0.78405399      -0.30665925       3.64441853       0.00000000
Si      -1.26156276      -3.33309690       1.14416678       0.00000000
Si       3.09993813       0.86946246      -2.03833232       0.00000000
Si       1.68622677       3.53787849      -0.26617116       0.00000000
