10
Lattice="16.28999089631971 0.0 0.0 0.0 16.28999089631971 0.0 0.0 0.0 34.185847837958455" Properties=species:S:1:pos:R:3:initial_magmoms:R:1 pbc="T T T"
Si       1.40506137      -1.29393099       1.38999393       0.00000000
Si      -0.78379335      -1.92075390      -1.20423203       0.00000000
Si      -1.35624024       1.42092783       1.38576856       0.00000000
Si       0.91525365       1.76679711      -1.60208446       0.00000000
Si       0.23346828       0.43225515      -3.49054593       0.00000000
Si       2.52165942       2.58866019       0.06979387       0.00000000
Si      -2.64075561      -2.76615603       0.03819587       0.00000000
Si       0.01431891      -2.64386700       2.76558536       0.00000000
Si      -2.69956251       0.07566705       2.76712372       0.00000000
Si       2.73153978       0.07322355       2.77337973       0.00000000
