10
Lattice="16.28999089631971 0.0 0.0 0.0 16.28999089631971 0.0 0.0 0.0 34.185847837958455" Properties=species:S:1:pos:R:3:initial_magmoms:R:1 pbc="T T T"
Si      -1.32432813      -1.39343031      -1.34038340       0.00000000
Si       1.35571896      -1.35386190       1.35899077       0.00000000
Si      -1.35879777       1.35910728       1.35964030       0.00000000
Si       1.39074246       1.34993601      -1.37559143       0.00000000
Si      -2.65507452      -0.12228903      -2.72738949       0.00000000
Si      -0.01431891       2.64386700      -2.76558536       0.00000000
Si      -2.71326240      -2.71120986       0.00307673       0.00000000
Si       2.71523349      -2.71210581      -0.00300836       0.00000000
Si      -0.00001629      -2.71319724       2.71774224       0.00000000
Si      -2.71495656       0.00172674       2.71757131       0.00000000
