10
Lattice="16.28999089631971 0.0 0.0 0.0 16.28999089631971 0.0 0.0 0.0 34.185847837958455" Properties=species:S:1:pos:R:3:initial_magmoms:R:1 pbc="T T T"
Si      -1.35728280      -1.35685926       1.35690543       0.00000000
Si       1.35814617       1.35744570       1.35697380       0.00000000
Si       1.35984033      -1.35549090      -1.35752078       0.00000000
Si      -1.35915615       1.35734796      -1.35830705       0.00000000
Si      -2.70409113       0.00632052      -2.69885454       0.00000000
Si       2.71350675      -2.71467963      -0.00061535       0.00000000
Si       0.00039096      -2.71415835       2.71425528       0.00000000
Si      -2.71446786       0.00086337       2.71422109       0.00000000
Si       2.71492398       0.00091224       2.71408435       0.00000000
Si       0.00019548       2.71531494       2.71370830       0.00000000
