10
Lattice="16.28999089631971 0.0 0.0 0.0 16.28999089631971 0.0 0.0 0.0 34.185847837958455" Properties=species:S:1:pos:R:3:initial_magmoms:R:1 pbc="T T T"
Si      -0.27385119      -0.88019757       2.09179901       0.00000000
Si       1.25389017      -1.61598429      -1.05518097       0.00000000
Si      -1.72704951       1.10921868      -1.11804878       0.00000000
Si      -2.55777435       1.09892340       1.25687758       0.00000000
Si       2.39950071      -0.14004513      -2.47744978       0.00000000
Si      -0.33102909       2.58967017      -2.50045687       0.00000000
Si      -1.08988245       1.95462081       2.85828034       0.00000000
Si      -0.29489787      -2.71995759      -2.49604689       0.00000000
Si       0.65863728       0.50552757       3.64869176       0.00000000
Si       3.14080974       1.76811660      -1.35379452       0.00000000
