10
Lattice="16.28999089631971 0.0 0.0 0.0 16.28999089631971 0.0 0.0 0.0 34.185847837958455" Properties=species:S:1:pos:R:3:initial_magmoms:R:1 pbc="T T T"
Si      -0.79314381      -0.49780611      -2.13008718       0.00000000
Si      -1.83847311       0.78517800       1.20166741       0.00000000
Si       1.36298430       1.86039945      -0.60611542       0.00000000
Si       1.13308353      -1.75355334       1.15360208       0.00000000
Si       2.49908148       1.34571690       1.42842226       0.00000000
Si      -1.59620823       1.75418865      -2.49638875       0.00000000
Si       1.28371716      -1.02324006      -3.04189263       0.00000000
Si       1.68132348      -0.41855526       2.99420334       0.00000000
Si      -2.87932266       2.02142610      -0.49118254       0.00000000
Si      -2.63487492      -1.90319328      -1.72173700       0.00000000
