10
Lattice="16.28999089631971 0.0 0.0 0.0 16.28999089631971 0.0 0.0 0.0 34.185847837958455" Properties=species:S:1:pos:R:3:initial_magmoms:R:1 pbc="T T T"
Si      -1.34332227      -1.34526078       1.38135516       0.00000000
Si       1.37104785       1.37068947       1.37834681       0.00000000
Si       1.35624024      -1.42092783      -1.38576856       0.00000000
Si      -1.56076119       1.29339342      -1.37804597       0.00000000
Si       2.27149389       0.34586928      -2.98785301       0.00000000
Si      -2.69724933      -2.70809847      -0.00312801       0.00000000
Si       2.70169650       2.73338055       0.00489542       0.00000000
Si      -2.70378162       0.00889434       2.73945710       0.00000000
Si       0.01176138      -2.70568755       2.73945710       0.00000000
Si      -2.71793763       2.73028545       0.03013826       0.00000000
