10
Lattice="16.28999089631971 0.0 0.0 0.0 16.28999089631971 0.0 0.0 0.0 34.185847837958455" Properties=species:S:1:pos:R:3:initial_magmoms:R:1 pbc="T T T"
Si       1.35606105       1.33312473       1.37984415       0.00000000
Si      -1.35863487       1.35454608      -1.35970867       0.00000000
Si       1.35555606      -1.36047564      -1.35916170       0.00000000
Si      -1.35088083      -1.36461330       1.37625463       0.00000000
Si      -0.05134608       2.50522281       2.87335630       0.00000000
Si      -2.71578735       2.71327869      -0.00037604       0.00000000
Si      -0.00102627       2.71311459      -2.71740038       0.00000000
Si       2.71479366       2.71637379       0.00082046       0.00000000
Si       2.71410948      -0.00195480      -2.71729782       0.00000000
Si      -2.71554300      -0.00180819      -2.71736619       0.00000000
