10
Lattice="16.28999089631971 0.0 0.0 0.0 16.28999089631971 0.0 0.0 0.0 34.185847837958455" Properties=species:S:1:pos:R:3:initial_magmoms:R:1 pbc="T T T"
Si       1.01533941      -1.66873131      -1.25670665       0.00000000
Si      -1.73925072       1.09324863      -1.21113689       0.00000000
Si       1.63403361       1.80280520       0.03767283       0.00000000
Si      -0.17979273      -1.59264072       2.16314492       0.00000000
Si      -1.72701693       0.29852469       2.34453513       0.00000000
Si       1.58478894       1.94755814       2.40135204       0.00000000
Si       2.15280495      -0.09042579      -2.72769032       0.00000000
Si      -2.96521983       1.66551308       0.73185104       0.00000000
Si      -0.71469117       2.47059746       2.62250041       0.00000000
Si      -0.46358082       2.71385603      -2.56308537       0.00000000
