10
Lattice="16.28999089631971 0.0 0.0 0.0 16.28999089631971 0.0 0.0 0.0 34.185847837958455" Properties=species:S:1:pos:R:3:initial_magmoms:R:1 pbc="T T T"
Si       1.70608428      -0.19122831      -1.55682438       0.00000000
Si      -1.16792784       1.98115722       0.37737779       0.00000000
Si      -1.18928403      -2.03825367      -0.17804000       0.00000000
Si       1.52099730       0.23615613       1.83550757       0.00000000
Si      -1.96612155       1.40558265       2.49279923       0.00000000
Si      -1.14003936      -2.18300661      -2.54171921       0.00000000
Si       0.02627577       0.76864365       3.65905008       0.00000000
Si      -3.48876414      -1.51521435       0.04310838       0.00000000
Si       2.94323715      -2.11452345      -1.21041899       0.00000000
Si       2.95286454       2.07404280       1.29078996       0.00000000
