10
Lattice="16.28999089631971 0.0 0.0 0.0 16.28999089631971 0.0 0.0 0.0 34.185847837958455" Properties=species:S:1:pos:R:3:initial_magmoms:R:1 pbc="T T T"
Si      -0.89854011      -1.88517884      -0.99826150       0.00000000
Si       1.36613383      -1.55432894       1.28744081       0.00000000
Si       2.20073732       0.50317367      -0.95720427       0.00000000
Si      -1.83806586       1.44712704       0.86066339       0.00000000
Si       2.42997671       0.23865013       2.48192953       0.00000000
Si       1.44194912       1.50547782      -2.93632667       0.00000000
Si      -0.48075048      -2.59524365       2.50105653       0.00000000
Si       1.30861710      -3.07084649      -1.48544429       0.00000000
Si      -0.90323163       2.77210677      -2.37841332       0.00000000
Si      -0.35235270       2.86116420       2.44466694       0.00000000
