10
Lattice="16.28999089631971 0.0 0.0 0.0 16.28999089631971 0.0 0.0 0.0 34.185847837958455" Properties=species:S:1:pos:R:3:initial_magmoms:R:1 pbc="T T T"
Si      -1.35065929      -1.35654975       1.32675350       0.00000000
Si      -1.35845242       1.35461124      -1.35700799       0.00000000
Si       1.35633798      -1.35791811      -1.35608497       0.00000000
Si       1.35278676       1.36515087       1.35707636       0.00000000
Si       2.65751802      -0.07219728       2.67176225       0.00000000
Si      -2.71224332       2.71363707       0.00376045       0.00000000
Si       2.71621089       2.71119357       0.00335021       0.00000000
Si      -0.00065160       2.71409319      -2.71336645       0.00000000
Si      -2.71487798      -0.00130320      -2.71336645       0.00000000
Si       2.71502172      -0.00081450      -2.71367412       0.00000000
