10
Lattice="16.28999089631971 0.0 0.0 0.0 16.28999089631971 0.0 0.0 0.0 34.185847837958455" Properties=species:S:1:pos:R:3:initial_magmoms:R:1 pbc="T T T"
Si       0.48438315      -0.78802875      -2.20403121       0.00000000
Si       0.00340461      -1.81172493       1.64591275       0.00000000
Si       2.32454783       0.79987158       0.17804000       0.00000000
Si      -0.72568692       2.31647058       0.43104960       0.00000000
Si      -1.99037736      -1.70092035      -0.70908325       0.00000000
Si      -1.40475186       1.87237260       2.63620894       0.00000000
Si       0.53269929      -3.49679511       0.00557230       0.00000000
Si       1.59490570      -2.87828010      -2.06609124       0.00000000
Si      -2.90395314       0.06165765       2.76543152       0.00000000
Si       2.44437056       3.17294991      -0.53288929       0.00000000
