10
Lattice="16.28999089631971 0.0 0.0 0.0 16.28999089631971 0.0 0.0 0.0 34.185847837958455" Properties=species:S:1:pos:R:3:initial_magmoms:R:1 pbc="T T T"
Si       0.22843467      -1.10025918      -2.05267435       0.00000000
Si      -0.92923047      -1.85347620       1.17061331       0.00000000
Si       1.95742269       0.87087969       1.09190035       0.00000000
Si      -1.69336179       1.75296690       0.04137823       0.00000000
Si       1.78476498       1.03500144      -2.24449125       0.00000000
Si      -2.21957766      -0.36357651       2.67081222       0.00000000
Si       0.49549293       2.37978981       2.63560420       0.00000000
Si      -2.23096437       2.27009295      -2.14271993       0.00000000
Si      -3.55032405       0.90756477       1.28380613       0.00000000
Si      -2.74146039      -2.86350507      -0.10113995       0.00000000
