10
Lattice="16.28999089631971 0.0 0.0 0.0 16.28999089631971 0.0 0.0 0.0 34.185847837958455" Properties=species:S:1:pos:R:3:initial_magmoms:R:1 pbc="T T T"
Si       0.03574026       1.97306109       1.21903383       0.00000000
Si       1.63997946      -1.16675496      -1.16166994       0.00000000
Si      -1.13609718       0.51468255      -2.03453769       0.00000000
Si      -0.81775800      -1.76427216       1.56578108       0.00000000
Si      -2.49908148      -1.34571690      -1.42842226       0.00000000
Si      -1.36599795      -3.09927024      -0.27482018       0.00000000
Si       1.46424294       1.10395701       2.98076830       0.00000000
Si       0.76167153      -3.36347775      -1.32528350       0.00000000
Si      -2.31318000       2.70759348       1.16997711       0.00000000
Si       3.61622266      -1.18607490       0.04232210       0.00000000
