10
Lattice="16.28999089631971 0.0 0.0 0.0 16.28999089631971 0.0 0.0 0.0 34.185847837958455" Properties=species:S:1:pos:R:3:initial_magmoms:R:1 pbc="T T T"
Si       1.97624320      -0.01931994       1.20399205       0.00000000
Si      -1.63997946       1.16675496       1.16166994       0.00000000
Si       0.37080927       0.44688357      -2.27906919       0.00000000
Si      -0.87830793      -2.19672279      -0.16361356       0.00000000
Si      -2.77607664       1.68143751      -0.87286774       0.00000000
Si       1.19158974      -3.34244736       0.22466952       0.00000000
Si       3.07728593      -1.79167194       0.16145985       0.00000000
Si      -1.83915729       0.91766457      -2.97047835       0.00000000
Si       2.52914372       2.30526306       1.29014043       0.00000000
Si      -3.00597741      -1.93251528       0.88684976       0.00000000
