10
Lattice="16.28999089631971 0.0 0.0 0.0 16.28999089631971 0.0 0.0 0.0 34.185847837958455" Properties=species:S:1:pos:R:3:initial_magmoms:R:1 pbc="T T T"
Si      -1.44107856       1.17418320       1.42408066       0.00000000
Si       1.34434854       1.36855548      -1.36692189       0.00000000
Si      -1.36816452      -1.35044100      -1.36593050       0.00000000
Si       1.29515274      -1.38732156       1.46342859       0.00000000
Si      -0.63768834      -2.22495336       2.56964906       0.00000000
Si       0.04838130       2.37899160       2.81106965       0.00000000
Si      -2.44993455      -0.50725431       2.87120259       0.00000000
Si       2.68949529      -2.71254564       0.01480248       0.00000000
Si       2.68428249       2.73008997      -0.00762345       0.00000000
Si       2.69917155       0.01023012      -2.72413499       0.00000000
