10
Lattice="16.28999089631971 0.0 0.0 0.0 16.28999089631971 0.0 0.0 0.0 34.185847837958455" Properties=species:S:1:pos:R:3:initial_magmoms:R:1 pbc="T T T"
Si      -1.22140791       1.49726507      -1.33847925       0.00000000
Si       1.49843565      -1.22720715      -1.34770943       0.00000000
Si       1.41936399       1.15311764       1.49129007       0.00000000
Si      -1.13746554      -1.57830552       1.47098367       0.00000000
Si      -0.51877134       1.89323099       2.76536315       0.00000000
Si      -2.15280495       0.09042579       2.72769032       0.00000000
Si       2.18931084      -0.81852363       2.65613930       0.00000000
Si      -2.55671550       0.12921228      -2.70273464       0.00000000
Si       0.15850170      -2.58874164      -2.70700787       0.00000000
Si       2.72114676       2.65527719       0.04652696       0.00000000
