10
Lattice="16.28999089631971 0.0 0.0 0.0 16.28999089631971 0.0 0.0 0.0 34.185847837958455" Properties=species:S:1:pos:R:3:initial_magmoms:R:1 pbc="T T T"
Si      -0.63265473       1.75554628      -1.37806648       0.00000000
Si      -1.39375611      -1.60722027       0.99026201       0.00000000
Si       1.82887571      -0.69509430      -1.39823614       0.00000000
Si       1.68326918       0.68018895       1.57733590       0.00000000
Si       2.71431215       1.29485856      -0.44670672       0.00000000
Si       2.13578420      -1.59399279       2.05559618       0.00000000
Si       2.73962681      -2.44177326      -0.10030133       0.00000000
Si       1.36011304       3.05506637      -1.52219410       0.00000000
Si       0.03474657      -2.47632435       2.75199647       0.00000000
Si      -2.12929848       3.12838766      -0.27827296       0.00000000
