10
Lattice="16.28999089631971 0.0 0.0 0.0 16.28999089631971 0.0 0.0 0.0 34.185847837958455" Properties=species:S:1:pos:R:3:initial_magmoms:R:1 pbc="T T T"
Si       0.90154724       0.34793811       2.20081774       0.00000000
Si       1.81092020      -1.58325768      -0.39429979       0.00000000
Si      -2.32454783      -0.79987158      -0.17804000       0.00000000
Si       0.11982272       2.37307833      -0.71092929       0.00000000
Si       2.71405409       1.52350596       1.17223338       0.00000000
Si      -1.84016468      -1.58790033      -2.38207121       0.00000000
Si      -3.05023475       1.51659900       0.25300960       0.00000000
Si       3.38870444       0.13299156      -0.69599007       0.00000000
Si      -1.50036667       3.32444691       0.70757907       0.00000000
Si      -2.32114322      -2.61159651       1.46787275       0.00000000
