10
Lattice="16.28999089631971 0.0 0.0 0.0 16.28999089631971 0.0 0.0 0.0 34.185847837958455" Properties=species:S:1:pos:R:3:initial_magmoms:R:1 pbc="T T T"
Si      -0.17423947       0.88817967      -2.17237510       0.00000000
Si       2.00648817       1.06350894       0.61978977       0.00000000
Si      -1.62018939       0.95136858       1.41850836       0.00000000
Si      -0.11982272      -2.37307833       0.71092929       0.00000000
Si       2.59423137      -0.84957237       1.88316267       0.00000000
Si      -3.17005748      -0.85647933       0.96393889       0.00000000
Si       0.92680326      -0.88417233      -3.21490730       0.00000000
Si       0.78172452      -2.02514022       2.91174703       0.00000000
Si       0.37866105       3.21276267      -2.08622672       0.00000000
Si       1.58382783       3.29341446       1.39006572       0.00000000
