10
Lattice="16.28999089631971 0.0 0.0 0.0 16.28999089631971 0.0 0.0 0.0 34.185847837958455" Properties=species:S:1:pos:R:3:initial_magmoms:R:1 pbc="T T T"
Si       1.62018939      -0.95136858      -1.41850836       0.00000000
Si      -1.54986809      -1.80784791      -0.45456947       0.00000000
Si      -0.70602980       2.22684300      -0.65243727       0.00000000
Si       0.88841327       0.56923776       2.24666099       0.00000000
Si      -2.22893303      -2.25194589       1.75058987       0.00000000
Si      -1.83904817       2.86772418       1.30607105       0.00000000
Si       1.39500783       3.10917456      -1.34883757       0.00000000
Si      -2.98803074      -0.64138617      -2.06742449       0.00000000
Si       3.62667756       0.11214036      -0.79871860       0.00000000
Si       1.50036667      -3.32444691      -0.70757907       0.00000000
