10
Lattice="16.28999089631971 0.0 0.0 0.0 16.28999089631971 0.0 0.0 0.0 34.185847837958455" Properties=species:S:1:pos:R:3:initial_magmoms:R:1 pbc="T T T"
Si       1.86702948       1.45202544       0.04707394       0.00000000
Si       0.90399726      -1.52151858       1.76638374       0.00000000
Si      -1.96286355       0.93120156       1.37475045       0.00000000
Si      -0.70286952      -0.10026495      -2.52243838       0.00000000
Si      -3.69171215       0.16384482      -0.32268040       0.00000000
Si       1.79722683       0.11362275       3.24910483       0.00000000
Si      -2.84829740      -1.03987215      -2.17548601       0.00000000
Si      -1.80401813      -2.98251981      -1.37423767       0.00000000
Si       3.38237415       0.97630857       1.78887805       0.00000000
Si       3.30626727       1.54600245      -1.73069370       0.00000000
