10
Lattice="16.28999089631971 0.0 0.0 0.0 16.28999089631971 0.0 0.0 0.0 34.185847837958455" Properties=species:S:1:pos:R:3:initial_magmoms:R:1 pbc="T T T"
Si       1.35171162       1.32445845       1.34794873       0.00000000
Si       1.35459495      -1.35913171      -1.35560637       0.00000000
Si      -1.35872284       1.35596331      -1.35714473       0.00000000
Si      -1.33727868      -1.37210507       1.39112548       0.00000000
Si      -0.10813302       2.60237637       2.61173186       0.00000000
Si      -2.71254043       2.71186146       0.00365789       0.00000000
Si       2.71397916      -0.00112401      -2.71305877       0.00000000
Si      -0.00120546       2.71415835      -2.71319552       0.00000000
Si       2.71645524       2.71221984       0.00629020       0.00000000
Si      -0.00086337      -2.71592313      -2.71278529       0.00000000
