10
Lattice="16.28999089631971 0.0 0.0 0.0 16.28999089631971 0.0 0.0 0.0 34.185847837958455" Properties=species:S:1:pos:R:3:initial_magmoms:R:1 pbc="T T T"
Si       1.93989465      -0.59189715      -1.17031897       0.00000000
Si      -0.76555669       1.87665687      -1.29506320       0.00000000
Si      -0.49100178      -0.01101204       2.37636217       0.00000000
Si      -1.21898396      -2.14500204      -0.03343378       0.00000000
Si       2.88691380      -1.18912113       0.92171934       0.00000000
Si       0.67753368      -1.95590772      -2.65254979       0.00000000
Si       1.58724873      -1.04208759       2.89923500       0.00000000
Si      -3.12980489      -0.86081247      -1.27602167       0.00000000
Si      -2.14393409       0.71011368      -2.76806383       0.00000000
Si      -2.74754375       2.56870494      -0.07797796       0.00000000
