10
Lattice="16.28999089631971 0.0 0.0 0.0 16.28999089631971 0.0 0.0 0.0 34.185847837958455" Properties=species:S:1:pos:R:3:initial_magmoms:R:1 pbc="T T T"
Si      -1.37837739      -1.16654319      -1.47300063       0.00000000
Si       0.76555669      -1.87665687       1.29506320       0.00000000
Si      -1.98198705       0.69204807       1.21708523       0.00000000
Si       1.54667849       1.61438787      -1.15630276       0.00000000
Si      -2.36424819      -2.73746934       0.01904153       0.00000000
Si       2.70545135      -2.46855402       0.12474423       0.00000000
Si       0.06178471      -2.44421676      -2.78378933       0.00000000
Si      -2.75193390       2.66368934       0.05223600       0.00000000
Si      -2.67286224       0.28336455      -2.78676350       0.00000000
Si       2.76849364       0.27303669      -2.76440594       0.00000000
