10
Lattice="16.28999089631971 0.0 0.0 0.0 16.28999089631971 0.0 0.0 0.0 34.642051614445585" Properties=species:S:1:pos:R:3:initial_magmoms:R:1 pbc="T T T"
Si       1.32910110       1.35211887      -1.36919321       0.00000000
Si       1.35338949      -1.35755973       1.35990914       0.00000000
Si      -1.36124127       1.35632169       1.35925094       0.00000000
Si      -1.36995642      -1.35697329      -1.39916553       0.00000000
Si       2.70870120      -2.71523023      -0.00045035       0.00000000
Si       2.71143792      -0.00050499       2.71656192       0.00000000
Si       2.71226871       2.71733490      -0.00058892       0.00000000
Si      -0.00316026       2.71474479       2.71659656       0.00000000
Si      -0.00268785      -2.71559024       2.71690834       0.00000000
Si      -2.71907793      -2.71366802      -0.00138568       0.00000000
