10
Lattice="16.28999089631971 0.0 0.0 0.0 16.28999089631971 0.0 0.0 0.0 34.642051614445585" Properties=species:S:1:pos:R:3:initial_magmoms:R:1 pbc="T T T"
Si      -1.35574407      -1.46700409       1.14159481       0.00000000
Si       1.06348125      -1.60602621      -1.34393914       0.00000000
Si      -1.63208763       1.14067467      -1.32744952       0.00000000
Si       2.02660469       0.69859665       1.13989735       0.00000000
Si       2.42986364      -0.23718240      -2.69882518       0.00000000
Si      -0.29383899       2.48288922      -2.70519932       0.00000000
Si       2.59121609       2.65219119      -0.04098157       0.00000000
Si       3.32938115      -1.38394464       0.99422744       0.00000000
Si      -1.56006954      -0.92639601       3.38189754       0.00000000
Si       2.14563572      -3.22014923       0.08286383       0.00000000
