10
Lattice="16.28999089631971 0.0 0.0 0.0 16.28999089631971 0.0 0.0 0.0 34.642051614445585" Properties=species:S:1:pos:R:3:initial_magmoms:R:1 pbc="T T T"
Si       2.15133885       0.46913571      -0.68334949       0.00000000
Si      -1.63962108       0.49723596      -1.73456314       0.00000000
Si       0.59548095      -0.49852287       2.38351305       0.00000000
Si      -0.24099426      -0.21258450      -3.49760205       0.00000000
Si       2.72904741       2.60073108       0.26594718       0.00000000
Si       2.10457026       0.48205368      -3.10992264       0.00000000
Si       3.51570780      -1.47710552       0.05961900       0.00000000
Si      -1.41693678       2.78158266      -2.42851310       0.00000000
Si       2.53368144      -2.15185687       2.31977164       0.00000000
Si      -1.01472039      -1.73755819       3.71170880       0.00000000
