10
Lattice="16.28999089631971 0.0 0.0 0.0 16.28999089631971 0.0 0.0 0.0 34.642051614445585" Properties=species:S:1:pos:R:3:initial_magmoms:R:1 pbc="T T T"
Si       1.35777150       1.35788553      -1.35679135       0.00000000
Si       1.35796698      -1.35793440       1.35720706       0.00000000
Si      -1.35819504       1.35788553       1.35751884       0.00000000
Si      -1.35808101      -1.35842310      -1.35734562       0.00000000
Si       0.00169416      -2.71388142       2.71406769       0.00000000
Si      -2.71511946       0.00089595       2.71375591       0.00000000
Si       0.00071676       2.71112841      -2.71780904       0.00000000
Si      -0.00053757       2.71510317       2.71434483       0.00000000
Si       2.71459818      -2.71524978      -0.00003464       0.00000000
Si       2.71549413       2.71456560       0.00027714       0.00000000
