10
Lattice="16.28999089631971 0.0 0.0 0.0 16.28999089631971 0.0 0.0 0.0 34.642051614445585" Properties=species:S:1:pos:R:3:initial_magmoms:R:1 pbc="T T T"
Si       0.39496734      -1.17983583      -2.01758886       0.00000000
Si      -0.86486868       2.14795053      -0.71459664       0.00000000
Si      -0.80026254      -0.53465409       2.24778542       0.00000000
Si       2.74936104       0.58964913       0.39422677       0.00000000
Si       1.38442194       0.63346923      -3.31115843       0.00000000
Si      -3.06525672       0.12595428       1.97494447       0.00000000
Si       0.03308499      -2.77742871       2.47139999       0.00000000
Si      -1.07152362       3.31630191       1.33188370       0.00000000
Si      -0.04681746      -3.84182057       0.41009284       0.00000000
Si       0.09673002       1.13687910       3.80196729       0.00000000
