10
Lattice="16.28999089631971 0.0 0.0 0.0 16.28999089631971 0.0 0.0 0.0 34.642051614445585" Properties=species:S:1:pos:R:3:initial_magmoms:R:1 pbc="T T T"
Si       1.35821133       1.34442999       1.38655235       0.00000000
Si      -1.35365013      -1.37578824       1.38738376       0.00000000
Si       1.47936006      -1.32400233      -1.38854427       0.00000000
Si      -1.37709144       1.46776158      -1.47609518       0.00000000
Si      -2.70873378      -2.70620883       0.02284645       0.00000000
Si       2.70912474       2.70692559      -0.00438569       0.00000000
Si       2.71353933      -2.72323188       0.04311206       0.00000000
Si      -2.72020194       2.71950147       0.01681180       0.00000000
Si       0.00215028       2.70135441       2.74808967       0.00000000
Si      -2.71143792      -0.01435149       2.74843609       0.00000000
