10
Lattice="16.28999089631971 0.0 0.0 0.0 16.28999089631971 0.0 0.0 0.0 34.642051614445585" Properties=species:S:1:pos:R:3:initial_magmoms:R:1 pbc="T T T"
Si      -2.05638444      -0.93711483      -0.59009304       0.00000000
Si       0.67256523      -1.66961097       1.49494393       0.00000000
Si       1.49690439       0.12478140      -1.87174574       0.00000000
Si      -0.32330763       2.10720924       1.20097132       0.00000000
Si      -3.18329406      -0.64005039       1.51888160       0.00000000
Si      -2.97326709       0.62446086      -2.06885912       0.00000000
Si       2.91068091      -2.15137143       1.00507041       0.00000000
Si       3.50917551       0.96282045      -0.98061310       0.00000000
Si      -1.62021969       3.48182460      -0.41407667       0.00000000
Si       1.77929154       2.80202661       2.14954050       0.00000000
