10
Lattice="16.28999089631971 0.0 0.0 0.0 16.28999089631971 0.0 0.0 0.0 34.642051614445585" Properties=species:S:1:pos:R:3:initial_magmoms:R:1 pbc="T T T"
Si      -2.15280495       0.90243342      -0.20927275       0.00000000
Si       0.46778364      -0.40094577      -2.26521038       0.00000000
Si       1.62077355       1.26869778       1.24642171       0.00000000
Si       0.42037974      -2.00622753       1.29485133       0.00000000
Si       2.47086720      -0.79395831       2.25440205       0.00000000
Si       0.94341906      -3.39610662      -0.55108607       0.00000000
Si      -0.36460278      -2.66030361      -2.43481796       0.00000000
Si      -1.69005492       3.18028041      -0.42665175       0.00000000
Si       2.79627624       2.43478485      -0.41196351       0.00000000
Si      -3.36238632       0.67284216       1.77651468       0.00000000
