10
Lattice="16.28999089631971 0.0 0.0 0.0 16.28999089631971 0.0 0.0 0.0 34.642051614445585" Properties=species:S:1:pos:R:3:initial_magmoms:R:1 pbc="T T T"
Si       2.10183354      -0.97231752       0.52032391       0.00000000
Si      -1.03078233      -0.07736121       2.16932113       0.00000000
Si      -1.88941194      -0.65169774      -1.35408927       0.00000000
Si       0.72607788       2.17723995      -0.75259899       0.00000000
Si      -0.80259201       2.20294557       2.66560344       0.00000000
Si      -0.23530905       3.57464502       0.85136354       0.00000000
Si      -0.48695697       2.35888974      -2.79523406       0.00000000
Si      -2.61053766       1.39230630      -2.29205798       0.00000000
Si       3.63770361      -0.08721666      -1.14079804       0.00000000
Si       1.78771347      -3.30551793       0.78374221       0.00000000
