10
Lattice="16.28999089631971 0.0 0.0 0.0 16.28999089631971 0.0 0.0 0.0 34.642051614445585" Properties=species:S:1:pos:R:3:initial_magmoms:R:1 pbc="T T T"
Si      -0.96138693       1.39740507       1.60396253       0.00000000
Si      -1.21303485       0.18164979      -2.04263507       0.00000000
Si      -0.72607788      -2.17723995       0.75259899       0.00000000
Si       2.41347753       0.04900032      -0.21640902       0.00000000
Si       1.37575566      -3.14955747       1.27292290       0.00000000
Si       2.91162573      -2.26445661      -0.38819905       0.00000000
Si      -1.52866989       0.02570562       3.41820243       0.00000000
Si      -3.33661554      -0.78493365      -1.53945899       0.00000000
Si       0.68141070       2.88458337       2.37381327       0.00000000
Si       2.95357248       1.70434125      -1.86311986       0.00000000
