10
Lattice="16.28999089631971 0.0 0.0 0.0 16.28999089631971 0.0 0.0 0.0 34.642051614445585" Properties=species:S:1:pos:R:3:initial_magmoms:R:1 pbc="T T T"
Si       0.22819032       2.28030678       0.49628231       0.00000000
Si      -2.34408213      -0.19140750      -0.25094716       0.00000000
Si       1.03078233       0.07736121      -2.16932113       0.00000000
Si       0.72728334      -1.68018318       1.56436664       0.00000000
Si       3.13261587      -0.89495631      -1.64899722       0.00000000
Si      -2.53961100      -1.51519806      -2.14292387       0.00000000
Si      -0.85862961      -0.57433653      -3.52341040       0.00000000
Si      -1.85912883       3.03679809       1.12060171       0.00000000
Si      -3.03731937       2.07663291      -0.67039336       0.00000000
Si       2.73955446      -0.84214413       2.45549927       0.00000000
