10
Lattice="16.28999089631971 0.0 0.0 0.0 16.28999089631971 0.0 0.0 0.0 34.642051614445585" Properties=species:S:1:pos:R:3:initial_magmoms:R:1 pbc="T T T"
Si      -0.98328069      -2.16523422       0.15918032       0.00000000
Si      -1.95556563       1.17589106      -0.86910028       0.00000000
Si       1.92295305      -0.39223062      -1.60060225       0.00000000
Si       0.70973901       0.20541690       2.51349010       0.00000000
Si      -3.26790432      -1.20974427       0.97306113       0.00000000
Si       0.83482992      -3.45126456       1.04449308       0.00000000
Si       3.35349198      -1.67374863      -0.14383388       0.00000000
Si      -1.35122292       3.41618309      -1.55068302       0.00000000
Si       2.70459612      -1.55616741       2.51827071       0.00000000
Si      -2.93003343       0.07641639      -2.75265896       0.00000000
