10
Lattice="16.28999089631971 0.0 0.0 0.0 16.28999089631971 0.0 0.0 0.0 34.642051614445585" Properties=species:S:1:pos:R:3:initial_magmoms:R:1 pbc="T T T"
Si      -1.25928216       1.37434657       1.40592767       0.00000000
Si       1.43778798      -1.37945253       1.39078908       0.00000000
Si       2.03921478       0.81141305      -1.09947109       0.00000000
Si      -1.86098589      -0.55024851      -1.54359668       0.00000000
Si      -2.64642453      -2.65927638      -0.17621036       0.00000000
Si       1.32885675       1.26070753      -3.29014597       0.00000000
Si      -2.61141732      -0.01627860       2.76810932       0.00000000
Si      -2.67499719       2.72425001      -0.03687995       0.00000000
Si       2.72696229      -2.68900563      -0.11976803       0.00000000
Si       0.10539630       2.69803940       2.77067284       0.00000000
