10
Lattice="16.28999089631971 0.0 0.0 0.0 16.28999089631971 0.0 0.0 0.0 34.642051614445585" Properties=species:S:1:pos:R:3:initial_magmoms:R:1 pbc="T T T"
Si      -1.35674523       1.35665741      -1.35713777       0.00000000
Si      -1.35666378      -1.35799845       1.35692992       0.00000000
Si       1.35666378       1.35747028       1.35779597       0.00000000
Si       1.35705474      -1.35765636      -1.35738027       0.00000000
Si      -2.71340901      -0.00144870      -2.71469125       0.00000000
Si      -2.71422351       2.71450873      -0.00045035       0.00000000
Si      -0.00066789       2.71468792      -2.71413698       0.00000000
Si      -0.00070047      -2.71472739      -2.71455268       0.00000000
Si       2.71529865       2.71463905      -0.00017321       0.00000000
Si       2.71570590      -0.00135122      -2.71469125       0.00000000
