10
Lattice="16.28999089631971 0.0 0.0 0.0 16.28999089631971 0.0 0.0 0.0 34.642051614445585" Properties=species:S:1:pos:R:3:initial_magmoms:R:1 pbc="T T T"
Si      -0.34376787      -1.89472967      -1.29339636       0.00000000
Si      -2.03471874       0.57689406       1.03243764       0.00000000
Si       0.47011311       2.12894010      -0.95134055       0.00000000
Si       1.48566429      -0.87559564       1.70948228       0.00000000
Si       1.32100497       3.14916651       1.03361547       0.00000000
Si      -0.88386282      -3.55007060       0.35331448       0.00000000
Si       0.65085066      -3.04170857       2.13391693       0.00000000
Si      -2.00207358      -1.53811809      -2.84782073       0.00000000
Si       3.61450665      -1.27870147       0.69488530       0.00000000
Si       1.54481328      -2.72291327      -2.35101879       0.00000000
