10
Lattice="16.28999089631971 0.0 0.0 0.0 16.28999089631971 0.0 0.0 0.0 34.642051614445585" Properties=species:S:1:pos:R:3:initial_magmoms:R:1 pbc="T T T"
Si       0.44165448       2.14772247      -0.85860373       0.00000000
Si       0.04676859      -0.01291797       2.42657315       0.00000000
Si       2.35204794      -0.66645648      -0.34455004       0.00000000
Si      -2.34556452      -0.69463818      -0.38767942       0.00000000
Si       1.05309963      -3.22005407       0.96970085       0.00000000
Si      -1.31895243       3.26578662       0.19946904       0.00000000
Si      -0.03464883      -3.33511523      -1.18669878       0.00000000
Si       3.38471991       0.91502559       1.08970098       0.00000000
Si       0.27179865      -1.89461008      -3.14681644       0.00000000
Si      -0.35316720       1.94525406      -3.11407969       0.00000000
