10
Lattice="16.28999089631971 0.0 0.0 0.0 16.28999089631971 0.0 0.0 0.0 34.642051614445585" Properties=species:S:1:pos:R:3:initial_magmoms:R:1 pbc="T T T"
Si      -2.28117015       0.30594738       0.60131707       0.00000000
Si       0.53118432      -2.29333131      -0.52652484       0.00000000
Si       1.08774846       0.11506116       2.15639963       0.00000000
Si       0.30644748       1.44050515      -1.96011766       0.00000000
Si       3.09032703       0.38782743       0.99162928       0.00000000
Si      -0.51113133      -0.18908685      -3.47823714       0.00000000
Si       0.03464883       3.33511523       1.18669878       0.00000000
Si      -2.31091569       2.64047705       0.79901937       0.00000000
Si      -1.55255103      -3.05883099      -1.13813060       0.00000000
Si      -2.35330227      -1.32099750      -2.46599582       0.00000000
