10
Lattice="16.28999089631971 0.0 0.0 0.0 16.28999089631971 0.0 0.0 0.0 34.642051614445585" Properties=species:S:1:pos:R:3:initial_magmoms:R:1 pbc="T T T"
Si       1.35247725       1.36109466      -1.34489526       0.00000000
Si      -1.35765747       1.35529542       1.36039413       0.00000000
Si       1.35713619      -1.35985662       1.35952808       0.00000000
Si      -1.38316761      -1.36521603      -1.36860430       0.00000000
Si       2.56929138      -0.00568521      -2.79556663       0.00000000
Si      -2.71471221       2.70853830      -0.00062356       0.00000000
Si       2.71608057       2.71164969       0.00495382       0.00000000
Si       0.00006516       2.71197549       2.71746262       0.00000000
Si      -2.71226871      -2.71733490       0.00058892       0.00000000
Si       2.71412577      -0.00193851       2.71735869       0.00000000
