10
Lattice="16.28999089631971 0.0 0.0 0.0 16.28999089631971 0.0 0.0 0.0 34.642051614445585" Properties=species:S:1:pos:R:3:initial_magmoms:R:1 pbc="T T T"
Si       1.35619137       1.35708732      -1.35786526       0.00000000
Si      -1.35873261      -1.35835794      -1.35796918       0.00000000
Si       1.35615879      -1.36213722       1.35776133       0.00000000
Si      -1.36256076       1.35902583       1.36281907       0.00000000
Si       2.71393029      -2.71264338      -0.00079677       0.00000000
Si       2.71285515       0.00022806      -2.71500303       0.00000000
Si      -0.00120546       2.71414206      -2.71489910       0.00000000
Si      -2.71500543      -2.71430496      -0.00110855       0.00000000
Si       2.71422351       2.71536381      -0.00096998       0.00000000
Si      -0.00210141      -2.71567332      -2.71521088       0.00000000
