10
Lattice="16.28999089631971 0.0 0.0 0.0 16.28999089631971 0.0 0.0 0.0 34.642051614445585" Properties=species:S:1:pos:R:3:initial_magmoms:R:1 pbc="T T T"
Si       0.14011029       2.36336949      -0.21571618       0.00000000
Si       0.37800945      -1.31782842      -1.97442484       0.00000000
Si      -2.35290316      -0.59614884       0.03633953       0.00000000
Si       1.10837160      -0.52973451       2.09989842       0.00000000
Si       0.86727960      -3.48689798      -1.01109813       0.00000000
Si      -1.24872298       2.91587742      -2.04893993       0.00000000
Si      -0.98471421       3.29667246       1.63694178       0.00000000
Si      -2.50827686      -2.95618865       0.11702092       0.00000000
Si      -1.99382269       1.61438787       2.92978387       0.00000000
Si       0.50402889      -2.77002653       2.78148116       0.00000000
