10
Lattice="16.28999089631971 0.0 0.0 0.0 16.28999089631971 0.0 0.0 0.0 34.642051614445585" Properties=species:S:1:pos:R:3:initial_magmoms:R:1 pbc="T T T"
Si       2.01748392       1.00159065       0.58160573       0.00000000
Si      -0.98288973      -1.31657409       1.68699957       0.00000000
Si      -1.63572777       1.46256507      -0.87911184       0.00000000
Si       0.31003128      -2.14863471      -1.04120209       0.00000000
Si      -2.53272033      -0.20896812      -2.43329371       0.00000000
Si      -0.27117963      -3.44001631       0.86989704       0.00000000
Si      -1.69937280      -2.45174274      -2.20967914       0.00000000
Si       3.66575499       0.42363774      -1.04002425       0.00000000
Si       2.55959883       0.62144721       2.78705854       0.00000000
Si       2.19406752       3.32747685       0.15377615       0.00000000
