10
Lattice="16.28999089631971 0.0 0.0 0.0 16.28999089631971 0.0 0.0 0.0 34.642051614445585" Properties=species:S:1:pos:R:3:initial_magmoms:R:1 pbc="T T T"
Si      -1.11711933       0.64640349       1.98831631       0.00000000
Si       2.05721523       1.01305881      -0.65185985       0.00000000
Si       0.35456814      -2.25743562       0.79451590       0.00000000
Si      -1.99145250       0.39060162      -1.32284212       0.00000000
Si      -1.29370293      -1.67948271       2.41614588       0.00000000
Si       0.77672349       1.83381417       2.68507228       0.00000000
Si      -0.49632372      -3.27766203      -1.19044013       0.00000000
Si       1.97819244       2.81618262       0.94188327       0.00000000
Si      -0.90942183       2.31135552      -2.60054563       0.00000000
Si      -2.29428360      -1.76573826      -2.45231220       0.00000000
