10
Lattice="16.28999089631971 0.0 0.0 0.0 16.28999089631971 0.0 0.0 0.0 34.642051614445585" Properties=species:S:1:pos:R:3:initial_magmoms:R:1 pbc="T T T"
Si       0.54211491      -0.38014344       2.20545281       0.00000000
Si      -2.01748392      -1.00159065      -0.58160573       0.00000000
Si       0.17658360       2.32588620      -0.42782958       0.00000000
Si       1.64827107      -0.57795291      -1.62162998       0.00000000
Si       1.29370293       1.67948271      -2.41614588       0.00000000
Si       1.80625149       1.41703452       2.98728971       0.00000000
Si       3.48775416      -1.64576241      -0.32061237       0.00000000
Si      -1.18001502      -0.11481192       3.68608956       0.00000000
Si      -1.70745264      -3.15022536      -1.62280781       0.00000000
Si      -3.00037365      -2.31816474       1.10539384       0.00000000
