10
Lattice="16.28999089631971 0.0 0.0 0.0 16.28999089631971 0.0 0.0 0.0 34.642051614445585" Properties=species:S:1:pos:R:3:initial_magmoms:R:1 pbc="T T T"
Si       1.72439424       0.89894736       1.40301916       0.00000000
Si      -0.89204366      -1.80383731       1.44638410       0.00000000
Si      -1.79200100       1.71506007       0.27101570       0.00000000
Si       0.48575151       0.54032301      -2.46364016       0.00000000
Si      -1.17737767      -2.82876013      -1.88816608       0.00000000
Si       0.45934542       2.14610976       2.89466170       0.00000000
Si       2.49044778       2.71262709       0.15620048       0.00000000
Si      -2.25152740      -0.56153259       2.88353813       0.00000000
Si       1.66454478       2.61943200      -2.10481759       0.00000000
Si      -2.58563744      -2.79650430       0.15249440       0.00000000
