10
Lattice="16.28999089631971 0.0 0.0 0.0 16.28999089631971 0.0 0.0 0.0 34.642051614445585" Properties=species:S:1:pos:R:3:initial_magmoms:R:1 pbc="T T T"
Si       0.35245044      -0.40860207      -2.28554527       0.00000000
Si      -0.65692683      -1.88669151       1.27499592       0.00000000
Si      -1.66008132       1.82421936       0.08504598       0.00000000
Si       1.97951193       0.79965981       1.28427999       0.00000000
Si      -1.97294706      -0.55987101       2.71124233       0.00000000
Si       0.76269780       2.16643968       2.73495136       0.00000000
Si       2.65733883      -0.89722062      -2.35753150       0.00000000
Si      -3.44031768       0.75466683       1.28083657       0.00000000
Si      -0.47148147       3.56566923       1.30329503       0.00000000
Si      -0.45097236       1.53611442      -3.54478455       0.00000000
