10
Lattice="16.28999089631971 0.0 0.0 0.0 16.28999089631971 0.0 0.0 0.0 34.642051614445585" Properties=species:S:1:pos:R:3:initial_magmoms:R:1 pbc="T T T"
Si      -0.97446780      -1.09947467      -1.88355868       0.00000000
Si       0.60434271       2.24029202      -0.68158275       0.00000000
Si       1.95556563      -1.17589106       0.86910028       0.00000000
Si      -2.08106542       0.02307478       1.73359316       0.00000000
Si      -1.31233869      -2.38563533       1.84216141       0.00000000
Si      -0.41793624       3.39215792       1.15811907       0.00000000
Si       0.97228494      -3.34112528       1.02828059       0.00000000
Si       0.36325071      -0.71687144      -3.79257929       0.00000000
Si      -0.50402889       2.77002653      -2.78148116       0.00000000
Si      -1.55046102      -3.37950452      -1.48725339       0.00000000
