10
Lattice="16.28999089631971 0.0 0.0 0.0 16.28999089631971 0.0 0.0 0.0 34.642051614445585" Properties=species:S:1:pos:R:3:initial_magmoms:R:1 pbc="T T T"
Si      -1.40825977       0.03225583       2.04066047       0.00000000
Si       0.76872673      -2.40871012       0.10856825       0.00000000
Si      -2.04594811       1.14112264      -1.05817670       0.00000000
Si       2.08106542      -0.02307478      -1.73359316       0.00000000
Si       0.28533401       1.02492282       3.33455018       0.00000000
Si       1.17737767       2.82876013       1.88816608       0.00000000
Si      -2.53256299      -0.44737077      -2.64242789       0.00000000
Si       1.66312918       3.36908314      -0.57547408       0.00000000
Si      -0.86659868      -3.59965573      -1.34761120       0.00000000
Si       1.10659762      -1.12254946      -3.61715184       0.00000000
