10
Lattice="16.28999089631971 0.0 0.0 0.0 16.28999089631971 0.0 0.0 0.0 34.642051614445585" Properties=species:S:1:pos:R:3:initial_magmoms:R:1 pbc="T T T"
Si      -1.93285737       0.73889811       1.18441241       0.00000000
Si      -0.01541034       1.43503497      -1.90919382       0.00000000
Si       0.76245345      -2.18833344      -0.65165200       0.00000000
Si       2.12708304       1.09476945       0.47210214       0.00000000
Si       1.47442419       2.87652078      -0.85856909       0.00000000
Si       1.02662838      -0.09207108      -3.37001531       0.00000000
Si       2.42302347      -1.61152083      -2.17195392       0.00000000
Si       3.67696251      -0.27526842      -0.69834951       0.00000000
Si      -3.03117804       2.26168731      -0.34704427       0.00000000
Si       2.03843286      -3.07279899       1.05699887       0.00000000
