10
Lattice="16.28999089631971 0.0 0.0 0.0 16.28999089631971 0.0 0.0 0.0 34.642051614445585" Properties=species:S:1:pos:R:3:initial_magmoms:R:1 pbc="T T T"
Si       1.35708064       1.35704769       1.35706849       0.00000000
Si      -1.35774627      -1.35879409       1.35679135       0.00000000
Si      -1.35587292       1.35804952      -1.36115625       0.00000000
Si       1.35570414      -1.36120501      -1.36295764       0.00000000
Si       0.00245458       2.71824172      -2.69620624       0.00000000
Si      -0.00085168       2.71429954       2.71389448       0.00000000
Si       2.71344143       2.71503259       0.00010393       0.00000000
Si      -2.71533858       2.71363165      -0.00024249       0.00000000
Si       2.71461431      -0.00062627       2.71455268       0.00000000
Si      -2.71543632      -0.00062997       2.71420626       0.00000000
