10
Lattice="16.28999089631971 0.0 0.0 0.0 16.28999089631971 0.0 0.0 0.0 34.642051614445585" Properties=species:S:1:pos:R:3:initial_magmoms:R:1 pbc="T T T"
Si       1.35832750       1.36019219      -1.33504999       0.00000000
Si       1.35587292      -1.35804952       1.36115625       0.00000000
Si      -1.35946566       1.35558212       1.36091376       0.00000000
Si      -1.38590433      -1.36452926      -1.37638491       0.00000000
Si       0.02837718       2.71380974      -2.67912424       0.00000000
Si       2.71390327       2.71216445       0.00876444       0.00000000
Si      -2.71459818      -2.71591508       0.00072748       0.00000000
Si       2.71157706      -2.71925453      -0.00180139       0.00000000
Si       2.71295356      -0.00100184       2.71822474       0.00000000
Si      -2.71829601       2.71296266       0.00349885       0.00000000
