10
Lattice="16.28999089631971 0.0 0.0 0.0 16.28999089631971 0.0 0.0 0.0 34.642051614445585" Properties=species:S:1:pos:R:3:initial_magmoms:R:1 pbc="T T T"
Si       0.20432547      -0.54060808      -2.24030273       0.00000000
Si      -0.44773065      -2.09407040       0.99329210       0.00000000
Si       1.83391910       1.28725209       0.87661761       0.00000000
Si      -1.75299948       1.90842237       0.01403004       0.00000000
Si       0.38973825       3.23662752       0.40084340       0.00000000
Si      -0.43020261      -1.50835789       3.26466877       0.00000000
Si       1.56006954       0.92639601      -3.38189754       0.00000000
Si      -2.49989598      -2.95256969       0.21876468       0.00000000
Si      -1.36130643      -1.94149596      -3.32252103       0.00000000
Si       2.70658254       0.57824613       3.00585786       0.00000000
