10
Lattice="16.28999089631971 0.0 0.0 0.0 16.28999089631971 0.0 0.0 0.0 34.642051614445585" Properties=species:S:1:pos:R:3:initial_magmoms:R:1 pbc="T T T"
Si       0.48661488       1.58849342       1.58425119       0.00000000
Si      -1.95802542       0.50570363      -1.18635236       0.00000000
Si      -0.43165242      -2.18241094       0.76451586       0.00000000
Si       1.60132266       0.23813387      -1.75562551       0.00000000
Si      -1.46523663      -1.20442450      -2.81525718       0.00000000
Si       0.55698768       3.40983922       0.04406471       0.00000000
Si      -1.26902358      -3.05039101      -1.26395060       0.00000000
Si       1.75669635       2.59817368      -1.83630690       0.00000000
Si       2.53256299       0.44737077       2.64242789       0.00000000
Si       1.66596431      -3.15228496       1.29481669       0.00000000
