10
Lattice="16.28999089631971 0.0 0.0 0.0 16.28999089631971 0.0 0.0 0.0 34.642051614445585" Properties=species:S:1:pos:R:3:initial_magmoms:R:1 pbc="T T T"
Si       2.13775299      -0.69212952      -0.56913458       0.00000000
Si      -1.37095011      -0.76303989      -1.76404354       0.00000000
Si      -1.06070706      -0.92740599       1.91542939       0.00000000
Si       0.49632372       2.33168544       0.15575075       0.00000000
Si      -0.68432661       2.57188149       2.11884763       0.00000000
Si      -2.04379227       1.41897303      -2.33473702       0.00000000
Si      -0.02803509       0.65407608       3.34968041       0.00000000
Si      -0.77965569       3.21615099      -1.55290012       0.00000000
Si       1.78685010      -2.45271362      -2.08715013       0.00000000
Si      -2.97110052       1.88677296       1.40137570       0.00000000
