10
Lattice="16.28999089631971 0.0 0.0 0.0 16.28999089631971 0.0 0.0 0.0 34.642051614445585" Properties=species:S:1:pos:R:3:initial_magmoms:R:1 pbc="T T T"
Si       1.32995032      -1.35361755       1.34407425       0.00000000
Si      -1.41002982       1.36852290       1.30762386       0.00000000
Si      -0.81285471      -1.88747343      -1.18752084       0.00000000
Si       1.78947672       0.92297511      -1.26844818       0.00000000
Si       2.68943406      -2.59592227      -0.09307978       0.00000000
Si       2.68265416       2.65308714       0.03077255       0.00000000
Si       2.68552609      -0.00164529       2.68788868       0.00000000
Si      -0.02837718      -2.71380974       2.67912424       0.00000000
Si      -0.03256371       2.71805166       2.67728821       0.00000000
Si      -2.74667319      -0.00084708       2.68262308       0.00000000
