10
Lattice="16.28999089631971 0.0 0.0 0.0 16.28999089631971 0.0 0.0 0.0 34.642051614445585" Properties=species:S:1:pos:R:3:initial_magmoms:R:1 pbc="T T T"
Si      -1.33664337      -1.36936998       1.37499922       0.00000000
Si       1.41002982      -1.36852290      -1.30762386       0.00000000
Si       1.37746611       1.34952876       1.36966435       0.00000000
Si      -1.48059810       1.34319195      -1.42326949       0.00000000
Si      -2.70132183      -2.69306280       0.01025405       0.00000000
Si      -2.69741223       2.70997182       0.02740188       0.00000000
Si      -2.69275329      -0.01097946       2.73182522       0.00000000
Si       0.02050911       2.70497079       2.73217164       0.00000000
Si       2.73113631       2.70967860      -0.00335335       0.00000000
Si       0.02218698      -2.72675052       2.73241413       0.00000000
