10
Lattice="16.28999089631971 0.0 0.0 0.0 16.28999089631971 0.0 0.0 0.0 34.642051614445585" Properties=species:S:1:pos:R:3:initial_magmoms:R:1 pbc="T T T"
Si       1.87402833      -1.15009029      -0.77508170       0.00000000
Si       0.84612771       0.98945460       1.96146870       0.00000000
Si      -0.45294345       1.58286672      -1.70435525       0.00000000
Si      -2.09147310      -1.21466385       0.05099313       0.00000000
Si       0.76784774      -2.77640244      -2.03643414       0.00000000
Si      -2.00282292       2.95290459      -0.53390360       0.00000000
Si      -1.70688249       0.24661431      -3.17795966       0.00000000
Si       2.43643733       2.51695161       1.14644470       0.00000000
Si       2.13803711      -0.76929525       2.91080001       0.00000000
Si      -3.36745251      -0.33019830      -1.65765774       0.00000000
