10
Lattice="16.28999089631971 0.0 0.0 0.0 16.28999089631971 0.0 0.0 0.0 34.642051614445585" Properties=species:S:1:pos:R:3:initial_magmoms:R:1 pbc="T T T"
Si       1.35630540       1.35710361      -1.35706849       0.00000000
Si      -1.35803214      -1.35827649      -1.35689528       0.00000000
Si       1.35729909      -1.35953082       1.35876595       0.00000000
Si      -1.35624024       1.35814617       1.36195302       0.00000000
Si      -0.00024435       2.71376739      -2.71379056       0.00000000
Si       2.71379997      -0.00058644      -2.71403305       0.00000000
Si       2.71420722       2.71370223       0.00013857       0.00000000
Si      -0.00136836      -2.71513575      -2.71403305       0.00000000
Si      -2.71542897      -0.00122175      -2.71392912       0.00000000
Si       2.71463076      -2.71495656       0.00006928       0.00000000
