10
Lattice="16.28999089631971 0.0 0.0 0.0 16.28999089631971 0.0 0.0 0.0 34.642051614445585" Properties=species:S:1:pos:R:3:initial_magmoms:R:1 pbc="T T T"
Si      -0.77269986       1.96773426       1.09766866       0.00000000
Si      -1.32066288      -1.98088029      -0.20785243       0.00000000
Si       1.92439701      -0.30467187       1.40712628       0.00000000
Si      -0.40094577       1.53937242      -1.88300441       0.00000000
Si      -1.27117386      -2.23814826       2.25218496       0.00000000
Si      -2.99558439      -1.15960365      -1.65083325       0.00000000
Si      -2.50592328       2.57525352      -0.42263327       0.00000000
Si      -1.81726353       0.26611344      -3.16212824       0.00000000
Si       3.80961917       0.18212220       0.07198622       0.00000000
Si       2.59973480      -2.55290364       1.33202227       0.00000000
