10
Lattice="16.28999089631971 0.0 0.0 0.0 16.28999089631971 0.0 0.0 0.0 34.642051614445585" Properties=species:S:1:pos:R:3:initial_magmoms:R:1 pbc="T T T"
Si      -1.25393904      -1.33625241      -1.47360442       0.00000000
Si       0.45294345      -1.58286672       1.70435525       0.00000000
Si      -1.54987947       1.37003787       1.17045165       0.00000000
Si       1.47917665       0.80936865      -1.68509426       0.00000000
Si      -2.91450906      -1.91306502       0.04669751       0.00000000
Si      -1.63852965      -2.79753057       1.75534838       0.00000000
Si       2.32697178      -2.73295701       0.92927355       0.00000000
Si      -3.67696251       0.27526842       0.69834951       0.00000000
Si      -2.65033413       0.18319734      -2.67166580       0.00000000
Si      -2.20253832       3.15178920      -0.16021958       0.00000000
