10
Lattice="16.28999089631971 0.0 0.0 0.0 16.28999089631971 0.0 0.0 0.0 34.642051614445585" Properties=species:S:1:pos:R:3:initial_magmoms:R:1 pbc="T T T"
Si      -0.96168015      -1.05889887      -1.87929771       0.00000000
Si       0.30739230      -1.60958232       1.71343147       0.00000000
Si      -1.21472901       1.96750620       0.53715995       0.00000000
Si       2.27365787       0.57945159      -0.41324526       0.00000000
Si       1.88727048      -3.02234886       0.61607459       0.00000000
Si      -1.61433900       0.72285246      -3.20996894       0.00000000
Si       3.47758010      -1.49485185      -0.19894941       0.00000000
Si      -0.37735785       2.83548627       2.56562642       0.00000000
Si       3.11746195       2.06268867       1.22269190       0.00000000
Si       0.58819932      -2.42893674      -3.04974936       0.00000000
