10
Lattice="16.28999089631971 0.0 0.0 0.0 16.28999089631971 0.0 0.0 0.0 34.642051614445585" Properties=species:S:1:pos:R:3:initial_magmoms:R:1 pbc="T T T"
Si      -1.34500014      -1.37184606      -1.34954077       0.00000000
Si       1.35641996      -1.35664749       1.36029020       0.00000000
Si      -1.35910728       1.35757602       1.36004771       0.00000000
Si       1.35309492       1.37143881      -1.38508007       0.00000000
Si      -2.68539021      -0.08050518      -2.73435409       0.00000000
Si       2.71312461       2.71308321      -0.00235566       0.00000000
Si       2.71495560      -2.71345788       0.00114319       0.00000000
Si      -2.71391400      -2.71479366       0.00519631       0.00000000
Si      -2.71305063       2.71642266       0.00017321       0.00000000
Si      -0.00070047      -2.71383255       2.71760118       0.00000000
