10
Lattice="16.28999089631971 0.0 0.0 0.0 16.28999089631971 0.0 0.0 0.0 34.642051614445585" Properties=species:S:1:pos:R:3:initial_magmoms:R:1 pbc="T T T"
Si       0.92445750       1.80745695       1.27157675       0.00000000
Si      -1.66575024      -1.03130361       1.42471895       0.00000000
Si       1.81983735      -1.82983941      -0.02102774       0.00000000
Si      -1.18024308       0.10070478      -2.32153839       0.00000000
Si      -0.32536017      -2.32264449       2.80953227       0.00000000
Si       2.37273489       0.42064038       2.77399297       0.00000000
Si      -2.36716506      -2.90170512      -0.05123562       0.00000000
Si      -2.38773933      -1.99765899      -2.29327046       0.00000000
Si       0.48944934       0.94472226      -3.82614745       0.00000000
Si       3.65138136      -0.98148879       1.30840473       0.00000000
