10
Lattice="16.28999089631971 0.0 0.0 0.0 16.28999089631971 0.0 0.0 0.0 34.642051614445585" Properties=species:S:1:pos:R:3:initial_magmoms:R:1 pbc="T T T"
Si       1.53733617      -1.20231603       1.29038250       0.00000000
Si       1.37551131       1.34275212      -1.37317705       0.00000000
Si      -1.34771891      -1.37161800      -1.37383525       0.00000000
Si      -1.09575174       1.35809730       1.70044070       0.00000000
Si       0.83608425       2.23761069       2.93380235       0.00000000
Si      -2.69191340       2.69061930       0.02203236       0.00000000
Si      -2.68596755      -2.71383255       0.00391455       0.00000000
Si       2.45472381       0.34645572       2.92507255       0.00000000
Si      -2.70040049      -0.01264104      -2.73086910       0.00000000
Si       0.01446552       2.70194085      -2.73048803       0.00000000
