10
Lattice="16.28999089631971 0.0 0.0 0.0 16.28999089631971 0.0 0.0 0.0 34.642051614445585" Properties=species:S:1:pos:R:3:initial_magmoms:R:1 pbc="T T T"
Si      -1.53733617       1.20231603      -1.29038250       0.00000000
Si       1.21751460      -1.51785333      -1.30586751       0.00000000
Si      -0.56461140      -1.95359454       1.18087892       0.00000000
Si       0.91738764       1.54877175       1.63469005       0.00000000
Si      -0.16182486       2.54506815      -2.66355955       0.00000000
Si       2.54870082      -0.16959519      -2.66286671       0.00000000
Si      -2.63308791       2.56041333       0.41005819       0.00000000
Si      -2.59121609      -2.65219119       0.04098157       0.00000000
Si       2.58159033       2.75314032       0.36762166       0.00000000
Si      -0.70125192       3.43992672       1.64341985       0.00000000
