10
Lattice="16.28999089631971 0.0 0.0 0.0 16.28999089631971 0.0 0.0 0.0 34.642051614445585" Properties=species:S:1:pos:R:3:initial_magmoms:R:1 pbc="T T T"
Si      -1.37475871      -1.28914173       1.37577521       0.00000000
Si       1.72113624      -1.45095030      -0.66083215       0.00000000
Si      -0.94651416       0.47271951      -2.13932109       0.00000000
Si       0.31455990       2.08083573       1.18832696       0.00000000
Si      -2.22255384       2.25318393      -1.23859261       0.00000000
Si       2.84682411      -0.19678320      -2.32822431       0.00000000
Si       0.99049716       0.94700286      -3.43278674       0.00000000
Si       0.01407456      -1.84164966       3.20899896       0.00000000
Si      -0.60232275       3.64241142      -0.29043912       0.00000000
Si       3.18381534      -1.77937299       1.16141007       0.00000000
