10
Lattice="16.28999089631971 0.0 0.0 0.0 16.28999089631971 0.0 0.0 0.0 34.642051614445585" Properties=species:S:1:pos:R:3:initial_magmoms:R:1 pbc="T T T"
Si       0.02181231       2.22299856      -0.74265672       0.00000000
Si      -2.00765195      -1.35221661       0.02584298       0.00000000
Si       1.12383081       0.11440467       2.15842104       0.00000000
Si       1.94732289      -1.70290773      -0.33460776       0.00000000
Si      -0.30227724      -1.10747565      -2.99608879       0.00000000
Si      -0.61604545      -0.87716763       3.34044626       0.00000000
Si      -1.31138573      -2.78976024      -1.70324670       0.00000000
Si      -1.50922289      -2.60727966       2.04122553       0.00000000
Si       2.77322589      -1.60971264       1.92641031       0.00000000
Si       1.23139368       2.45258982      -2.72844415       0.00000000
