10
Lattice="16.28999089631971 0.0 0.0 0.0 16.28999089631971 0.0 0.0 0.0 34.642051614445585" Properties=species:S:1:pos:R:3:initial_magmoms:R:1 pbc="T T T"
Si       0.49516713       1.70137647      -1.59796945       0.00000000
Si       0.60970212       1.59176106       1.75628371       0.00000000
Si      -1.93183599      -0.87951339      -1.23336165       0.00000000
Si       1.61863956      -1.89115497      -0.00872980       0.00000000
Si      -0.60018224      -1.14326478       3.01631976       0.00000000
Si      -1.27552003       1.10496699       3.09142377       0.00000000
Si       1.90198782       0.45773271      -2.94849059       0.00000000
Si       3.28284225      -0.68678640      -1.27579819       0.00000000
Si       2.25640935       2.94503652      -0.30291027       0.00000000
Si      -0.83608425      -2.23761069      -2.93380235       0.00000000
