10
Lattice="16.28999089631971 0.0 0.0 0.0 16.28999089631971 0.0 0.0 0.0 34.642051614445585" Properties=species:S:1:pos:R:3:initial_magmoms:R:1 pbc="T T T"
Si       1.40682069      -1.24364376      -1.35052114       0.00000000
Si      -0.49516713      -1.70137647       1.59796945       0.00000000
Si      -1.32519802       1.47155715      -1.33586754       0.00000000
Si       1.76124222       1.24366005       1.29505918       0.00000000
Si       0.11453499      -0.10961541       3.35425316       0.00000000
Si      -2.42700312      -2.58088986       0.36460780       0.00000000
Si       2.78767512      -2.38816287       0.32217126       0.00000000
Si       0.04425993      -2.59623504      -2.70900995       0.00000000
Si       0.37875879       2.30633820       2.93695478       0.00000000
Si      -2.67643640       0.11966634      -2.70499147       0.00000000
