10
Lattice="16.28999089631971 0.0 0.0 0.0 16.28999089631971 0.0 0.0 0.0 34.642051614445585" Properties=species:S:1:pos:R:3:initial_magmoms:R:1 pbc="T T T"
Si       0.67533779      -2.24823177      -0.07510401       0.00000000
Si       1.88522215       0.48679407      -1.33514006       0.00000000
Si       0.23146787       1.28909286       2.00771587       0.00000000
Si      -1.92439701       0.30467187      -1.40712628       0.00000000
Si       1.27552003      -1.10496699      -3.09142377       0.00000000
Si      -2.69709687       2.27240613      -0.30945762       0.00000000
Si       2.47695640       0.56798343       2.60653870       0.00000000
Si      -1.24091748      -3.40066782       0.94870776       0.00000000
Si      -3.19557087      -1.93347639       0.84505868       0.00000000
Si      -0.09443476       3.62558385       1.40179140       0.00000000
