10
Lattice="16.28999089631971 0.0 0.0 0.0 16.28999089631971 0.0 0.0 0.0 34.642051614445585" Properties=species:S:1:pos:R:3:initial_magmoms:R:1 pbc="T T T"
Si       1.20958137       0.22959126      -1.98578743       0.00000000
Si      -0.02181231      -2.22299856       0.74265672       0.00000000
Si      -2.11826105       1.03360050       0.02663975       0.00000000
Si       1.67233140       2.50743825      -2.20316643       0.00000000
Si       1.10201850      -2.10859389       2.90107776       0.00000000
Si      -3.19587713      -0.15895782      -2.10540651       0.00000000
Si      -1.78301055       3.31623675      -0.72291074       0.00000000
Si       3.36238632      -0.67284216      -1.77651468       0.00000000
Si      -2.55023927       1.51154910       2.55190816       0.00000000
Si      -1.61599895      -1.57172436      -3.20276339       0.00000000
