10
Lattice="16.28999089631971 0.0 0.0 0.0 16.28999089631971 0.0 0.0 0.0 34.642051614445585" Properties=species:S:1:pos:R:3:initial_magmoms:R:1 pbc="T T T"
Si       1.36002968       1.34164440       1.38272441       0.00000000
Si      -1.35309492      -1.37143881       1.38508007       0.00000000
Si       1.27864647      -1.40212917      -1.46558824       0.00000000
Si      -1.44827739       1.38681657      -1.50241623       0.00000000
Si      -0.55289754      -2.25047979      -2.79502071       0.00000000
Si      -2.37273489      -0.42064038      -2.77399297       0.00000000
Si       2.68823321      -2.72158659       0.02097577       0.00000000
Si      -2.73745170       2.69636967       0.00814089       0.00000000
Si       2.71918421       2.71833778       0.00296190       0.00000000
Si      -2.69809506      -2.74328487       0.03553930       0.00000000
