10
Lattice="16.28999089631971 0.0 0.0 0.0 16.28999089631971 0.0 0.0 0.0 34.642051614445585" Properties=species:S:1:pos:R:3:initial_magmoms:R:1 pbc="T T T"
Si       1.35725022       1.35640850      -1.35845417       0.00000000
Si      -1.35975523       1.35904212       1.35658350       0.00000000
Si      -1.35852178      -1.35866745      -1.35869667       0.00000000
Si       1.36120869      -1.35917244       1.35786526       0.00000000
Si       2.68757307       0.00327429       2.71638871       0.00000000
Si      -0.00465242       2.69664238       2.71638871       0.00000000
Si      -2.71457279       2.71161452      -0.00131640       0.00000000
Si       2.71350675      -2.71645524      -0.00242494       0.00000000
Si      -0.00028345       2.71408246      -2.71593836       0.00000000
Si       2.71595025       2.71476012      -0.00228638       0.00000000
