10
Lattice="16.28999089631971 0.0 0.0 0.0 16.28999089631971 0.0 0.0 0.0 34.642051614445585" Properties=species:S:1:pos:R:3:initial_magmoms:R:1 pbc="T T T"
Si       1.32636438       1.36244673       1.35852346       0.00000000
Si       1.35229806      -1.35728280      -1.36029020       0.00000000
Si      -1.36120869       1.35917244      -1.35786526       0.00000000
Si      -1.36940908      -1.36309833       1.37106389       0.00000000
Si      -0.28370664       2.44169181       2.78532643       0.00000000
Si       2.69071704      -0.00628794       2.61797059       0.00000000
Si       2.71088406       0.00011403      -2.71697763       0.00000000
Si       2.71153566      -2.71725345       0.00180139       0.00000000
Si       2.70938538       2.72147256      -0.00076213       0.00000000
Si      -0.00363267      -2.71495656      -2.71680442       0.00000000
