10
Lattice="16.28999089631971 0.0 0.0 0.0 16.28999089631971 0.0 0.0 0.0 34.642051614445585" Properties=species:S:1:pos:R:3:initial_magmoms:R:1 pbc="T T T"
Si       1.38248343      -1.06267815      -1.64189560       0.00000000
Si      -1.83310718       1.27754325      -0.96180246       0.00000000
Si      -0.26422380      -2.41595361       0.41729839       0.00000000
Si       1.28736612       0.65010132       2.04052191       0.00000000
Si       2.08652094      -2.81896821       0.97285328       0.00000000
Si      -3.32319977       1.24688547       1.05280718       0.00000000
Si      -0.37875879      -2.30633820      -2.93695478       0.00000000
Si       2.00849184      -1.39390272       2.97849062       0.00000000
Si       2.35616931       0.52202934      -3.02591562       0.00000000
Si      -2.24388071       0.72283617       3.15422985       0.00000000
