10
Lattice="10.86 0.0 0.0 0.0 10.86 0.0 0.0 0.0 10.86" Properties=species:S:1:pos:R:3:initial_magmoms:R:1 pbc="T T T"
Si      -1.37093382      -1.28538960       1.27242276       0.00000000
Si       1.34406618       1.42961040       1.27242276       0.00000000
Si       1.34406618      -1.28538960      -1.44257724       0.00000000
Si      -1.64287908       1.08336102      -1.29874740       0.00000000
Si      -0.28317450       2.34277350      -2.58331164       0.00000000
Si      -0.01343382      -2.64288960       2.62992276       0.00000000
Si       2.70156618       0.07211040       2.62992276       0.00000000
Si       2.70156618      -2.64288960      -0.08507724       0.00000000
Si      -2.72843382       0.07211040       2.62992276       0.00000000
Si      -2.72843382      -2.64288960      -0.08507724       0.00000000
