10
Lattice="16.28999089631971 0.0 0.0 0.0 16.28999089631971 0.0 0.0 0.0 34.40246978574605" Properties=species:S:1:pos:R:3:initial_magmoms:R:1 pbc="T T T"
Si       1.32369282       1.35105031       1.36081109       0.00000000
Si      -1.22422608       1.39106833      -1.43933478       0.00000000
Si      -1.39271355      -1.35832108       1.35671720       0.00000000
Si       1.38142458      -1.33777939      -1.42543961       0.00000000
Si      -2.11444200      -0.47348086      -2.65267960       0.00000000
Si      -0.43841277      -2.18880157      -2.67736098       0.00000000
Si       2.66154165      -2.70835483       0.01597308       0.00000000
Si       2.68472232      -0.00162732       2.71867734       0.00000000
Si      -2.72719035       2.68007485       0.00658464       0.00000000
Si       2.69327457       2.71744411      -0.02759080       0.00000000
