10
Lattice="16.28999089631971 0.0 0.0 0.0 16.28999089631971 0.0 0.0 0.0 34.40246978574605" Properties=species:S:1:pos:R:3:initial_magmoms:R:1 pbc="T T T"
Si      -1.04801715      -1.52075947       1.46974314       0.00000000
Si      -1.27883016       1.25050185      -1.57068004       0.00000000
Si       0.86874570       1.77376923       1.52083083       0.00000000
Si       1.45425717      -1.45609957      -1.53940818       0.00000000
Si       2.58238854       2.66844861      -0.01740766       0.00000000
Si      -2.64881916       2.63935467      -0.16547597       0.00000000
Si      -2.55634083      -2.81378183       0.00835980       0.00000000
Si      -0.89720433       3.58722090       1.07205036       0.00000000
Si       0.09905949       2.60868060      -2.94891255       0.00000000
Si      -2.61405630      -0.10790496      -2.94798369       0.00000000
