10
Lattice="16.28999089631971 0.0 0.0 0.0 16.28999089631971 0.0 0.0 0.0 34.40246978574605" Properties=species:S:1:pos:R:3:initial_magmoms:R:1 pbc="T T T"
Si      -1.00758537       1.93497507       0.86532581       0.00000000
Si      -0.61989966      -2.20839132       0.54393775       0.00000000
Si       2.10655764      -0.11103264       1.18506254       0.00000000
Si      -0.53268300      -0.26717229      -2.35684572       0.00000000
Si       1.29580434      -1.62800631       2.89889133       0.00000000
Si      -0.55925199       3.53846493      -0.74856376       0.00000000
Si      -3.62520918      -0.52268094       0.40594937       0.00000000
Si      -2.61648351      -2.55077291      -0.48951302       0.00000000
Si       3.61273104       0.58730337      -0.50630143       0.00000000
Si       0.29212857       2.42488053       2.79100513       0.00000000
