10
Lattice="16.28999089631971 0.0 0.0 0.0 16.28999089631971 0.0 0.0 0.0 34.40246978574605" Properties=species:S:1:pos:R:3:initial_magmoms:R:1 pbc="T T T"
Si       1.28928834      -1.34418564       1.41672546       0.00000000
Si      -0.81155151      -1.94396715      -1.10261525       0.00000000
Si       1.67430249       0.93887415      -1.41381642       0.00000000
Si      -1.41802821       1.36259334       1.37397349       0.00000000
Si       0.49580244       1.15325055      -3.50122185       0.00000000
Si       2.78071929      -2.48072265       0.04864512       0.00000000
Si       2.64759741       0.00377928       2.75553960       0.00000000
Si      -2.69988831      -2.75441094       0.04811188       0.00000000
Si       1.10916981      -3.49596432      -1.21428539       0.00000000
Si      -0.06429663      -2.71388142       2.75223696       0.00000000
