10
Lattice="16.28999089631971 0.0 0.0 0.0 16.28999089631971 0.0 0.0 0.0 34.40246978574605" Properties=species:S:1:pos:R:3:initial_magmoms:R:1 pbc="T T T"
Si      -1.45018648       1.17441126      -1.35735020       0.00000000
Si      -1.83498886      -0.81840960       1.25152815       0.00000000
Si       1.28585490      -1.56479622      -1.30447358       0.00000000
Si       0.86727357       1.67062095       1.69108875       0.00000000
Si      -0.50937382      -0.12795795       3.09780653       0.00000000
Si       2.60234917       2.53972503       0.08321962       0.00000000
Si      -0.08288533       2.50939305      -2.69897847       0.00000000
Si      -2.73877435       2.57574222       0.10933111       0.00000000
Si       2.63711203      -0.20753460      -2.69928809       0.00000000
Si      -2.79715771      -0.20623140      -2.69935690       0.00000000
