10
Lattice="16.28999089631971 0.0 0.0 0.0 16.28999089631971 0.0 0.0 0.0 34.40246978574605" Properties=species:S:1:pos:R:3:initial_magmoms:R:1 pbc="T T T"
Si      -1.35641943       1.35837423       1.35621492       0.00000000
Si      -1.35713619      -1.35782037      -1.35810706       0.00000000
Si       1.35751086       1.35798327      -1.35765983       0.00000000
Si       1.35871632      -1.35822762       1.36261378       0.00000000
Si       2.68780113       0.03753216       2.72433310       0.00000000
Si      -0.00676035       2.71999017       2.70169627       0.00000000
Si      -2.71461447       2.71472850      -0.00127289       0.00000000
Si      -2.71445157       0.00013032      -2.71573248       0.00000000
Si       0.00058644       2.71497285      -2.71545726       0.00000000
Si       2.71507059       0.00066789      -2.71556047       0.00000000
