10
Lattice="16.28999089631971 0.0 0.0 0.0 16.28999089631971 0.0 0.0 0.0 34.40246978574605" Properties=species:S:1:pos:R:3:initial_magmoms:R:1 pbc="T T T"
Si      -1.34936586       1.37841093      -1.31720250       0.00000000
Si       1.37463165      -1.34542368      -1.33619267       0.00000000
Si       1.53279126       1.44234918       1.13418126       0.00000000
Si      -0.97129125      -1.72849932       1.33928890       0.00000000
Si      -2.44618785      -0.11129328       2.18300994       0.00000000
Si       3.13549920      -0.51592059       1.39787634       0.00000000
Si       2.50830162      -2.64727161       0.24983088       0.00000000
Si      -2.69477325       0.00812871      -2.68160521       0.00000000
Si       0.02497257      -2.70703962      -2.68167402       0.00000000
Si       0.02857266       2.71617831      -2.67991949       0.00000000
