10
Lattice="16.28999089631971 0.0 0.0 0.0 16.28999089631971 0.0 0.0 0.0 34.40246978574605" Properties=species:S:1:pos:R:3:initial_magmoms:R:1 pbc="T T T"
Si       0.66354057       2.17673496       0.62529964       0.00000000
Si       1.77836301      -1.46261394       0.64470264       0.00000000
Si       0.64514916      -0.25891326      -2.41333460       0.00000000
Si      -1.89413604      -0.96550830       1.44937686       0.00000000
Si       1.91565513      -0.88006725       2.91017161       0.00000000
Si       0.57585150      -3.49053975       0.79614240       0.00000000
Si      -1.15632936       2.52377712       2.48826323       0.00000000
Si      -1.18291464       0.87340464      -3.48796515       0.00000000
Si       0.24031008       3.62757123      -1.22871930       0.00000000
Si      -2.50751481      -2.39489064      -1.71341597       0.00000000
