10
Lattice="16.28999089631971 0.0 0.0 0.0 16.28999089631971 0.0 0.0 0.0 34.40246978574605" Properties=species:S:1:pos:R:3:initial_magmoms:R:1 pbc="T T T"
Si      -1.35216774       1.35179307       1.36027442       0.00000000
Si      -1.35638685      -1.35773892      -1.35645574       0.00000000
Si       1.35871632       1.35711990      -1.35621492       0.00000000
Si       1.35679410      -1.35765747       1.35872630       0.00000000
Si      -0.00610875      -2.70980892       2.70400123       0.00000000
Si      -2.71417464       0.00024435      -2.71322110       0.00000000
Si       0.00123804      -2.71482624      -2.71315230       0.00000000
Si       0.00048870       2.71529865      -2.71332431       0.00000000
Si       2.71549413       0.00027693      -2.71328991       0.00000000
Si      -2.71362078       2.71524978       0.00340585       0.00000000
