10
Lattice="16.28999089631971 0.0 0.0 0.0 16.28999089631971 0.0 0.0 0.0 34.40246978574605" Properties=species:S:1:pos:R:3:initial_magmoms:R:1 pbc="T T T"
Si       0.82015263      -0.26932257      -2.24493442       0.00000000
Si       2.19248739       0.22007790       1.06097276       0.00000000
Si      -0.78998355      -1.93986207       1.28630906       0.00000000
Si      -1.85715774       1.67412330      -0.15862988       0.00000000
Si       2.05284951       1.78103457      -2.47226607       0.00000000
Si       2.63327850      -2.02944078       1.72814023       0.00000000
Si       1.63224171      -2.56556097      -2.20024559       0.00000000
Si       1.73591127       1.35247725       3.04909260       0.00000000
Si       0.70819146      -2.05995195       3.07461925       0.00000000
Si      -3.59456769       0.36145881      -1.11615435       0.00000000
