10
Lattice="16.28999089631971 0.0 0.0 0.0 16.28999089631971 0.0 0.0 0.0 34.40246978574605" Properties=species:S:1:pos:R:3:initial_magmoms:R:1 pbc="T T T"
Si       1.59161445      -0.11484450       1.72401193       0.00000000
Si      -0.34420770       2.37420234       0.00959829       0.00000000
Si       1.22038164      -0.77577867      -1.94731849       0.00000000
Si      -1.88524985      -1.47017576       0.54121996       0.00000000
Si      -1.73946575       2.53684170      -1.85425976       0.00000000
Si       1.19663082      -2.32010651       2.51134730       0.00000000
Si       3.53582595       0.65195838       0.44589066       0.00000000
Si       0.88472619       1.61873730       3.23837510       0.00000000
Si       1.79178597      -3.03721253      -1.44738152       0.00000000
Si       3.28365675       0.44675325      -1.92375278       0.00000000
