10
Lattice="16.28999089631971 0.0 0.0 0.0 16.28999089631971 0.0 0.0 0.0 34.40246978574605" Properties=species:S:1:pos:R:3:initial_magmoms:R:1 pbc="T T T"
Si       2.29206816      -0.36675306      -0.45720908       0.00000000
Si      -1.53029889      -1.36715454      -1.17856047       0.00000000
Si      -0.57140433       2.26143386      -0.49993697       0.00000000
Si      -0.63350181      -0.81862137       2.15094682       0.00000000
Si      -2.99403684      -0.73129068       1.82862990       0.00000000
Si       2.22581673      -2.66620059      -1.00272935       0.00000000
Si      -3.66578594      -0.81627561      -0.42005439       0.00000000
Si      -1.79178597       3.03721253       1.44738152       0.00000000
Si       1.49187078       3.48396578      -0.47637127       0.00000000
Si       0.56013165      -2.93588154       2.38853041       0.00000000
