10
Lattice="16.28999089631971 0.0 0.0 0.0 16.28999089631971 0.0 0.0 0.0 34.40246978574605" Properties=species:S:1:pos:R:3:initial_magmoms:R:1 pbc="T T T"
Si      -0.06625143      -2.29944753      -0.54552027       0.00000000
Si      -2.29206816       0.36675306       0.45720908       0.00000000
Si       1.30862457      -0.32856930       1.95388936       0.00000000
Si       1.65938085       1.08243533      -1.73932104       0.00000000
Si       3.07924983      -1.36044306       0.79972026       0.00000000
Si       1.40457267       3.33548243      -0.91668872       0.00000000
Si       0.13421331      -2.35199907      -3.01517175       0.00000000
Si      -2.86347249       2.62818692      -0.04272789       0.00000000
Si       2.05151373      -3.31877799      -0.06182127       0.00000000
Si       0.60300693      -2.32947000       3.08112132       0.00000000
