10
Lattice="16.28999089631971 0.0 0.0 0.0 16.28999089631971 0.0 0.0 0.0 34.40246978574605" Properties=species:S:1:pos:R:3:initial_magmoms:R:1 pbc="T T T"
Si      -1.32369282      -1.35105031      -1.36081109       0.00000000
Si       1.36102950      -1.35267763       1.35786624       0.00000000
Si      -1.35526284       1.36194663       1.35814146       0.00000000
Si       1.36958175       1.36639380      -1.38840189       0.00000000
Si      -2.54791890       0.04001801      -2.80014587       0.00000000
Si       2.71560816      -2.70681386       0.00006880       0.00000000
Si      -2.71640637      -2.70937139      -0.00409390       0.00000000
Si       0.00192222      -2.71113071       2.71483802       0.00000000
Si      -2.71345788       0.00343067       2.71504443       0.00000000
Si      -2.71186146       2.71738866      -0.00261459       0.00000000
