10
Lattice="16.28999089631971 0.0 0.0 0.0 16.28999089631971 0.0 0.0 0.0 34.40246978574605" Properties=species:S:1:pos:R:3:initial_magmoms:R:1 pbc="T T T"
Si      -1.35744570       1.35761426      -1.35717819       0.00000000
Si       1.35793440      -1.35694712      -1.35738461       0.00000000
Si      -1.35633798      -1.35825032       1.35769423       0.00000000
Si       1.35814617       1.35727543       1.35783184       0.00000000
Si      -0.00265527      -2.70989678       2.71229223       0.00000000
Si      -2.71440270      -2.71409960      -0.00003440       0.00000000
Si       2.71528236       0.00139804       2.71373714       0.00000000
Si       0.00158013      -2.71408331      -2.71507884       0.00000000
Si       2.71542897      -2.71380638      -0.00058484       0.00000000
Si      -2.71520091       0.00194658      -2.71418437       0.00000000
