10
Lattice="16.28999089631971 0.0 0.0 0.0 16.28999089631971 0.0 0.0 0.0 34.40246978574605" Properties=species:S:1:pos:R:3:initial_magmoms:R:1 pbc="T T T"
Si       1.35457866      -1.35413623      -1.35779744       0.00000000
Si       1.35615879       1.35581508       1.35755662       0.00000000
Si      -1.36102950       1.35267763      -1.35786624       0.00000000
Si      -1.35910728      -1.35845308       1.35697178       0.00000000
Si      -2.68472232       0.00162732      -2.71867734       0.00000000
Si      -0.02318067      -2.70672751      -2.70270426       0.00000000
Si       2.70730026       0.00365156      -2.71490338       0.00000000
Si       2.71173114      -0.00090686       2.71428758       0.00000000
Si      -0.00133578       2.71320703       2.71418437       0.00000000
Si       2.71389771       2.71385863       0.00010321       0.00000000
