10
Lattice="16.28999089631971 0.0 0.0 0.0 16.28999089631971 0.0 0.0 0.0 34.40246978574605" Properties=species:S:1:pos:R:3:initial_magmoms:R:1 pbc="T T T"
Si      -1.35283563       1.35544203      -1.35783184       0.00000000
Si      -1.38272778      -1.32354621       1.36663888       0.00000000
Si       1.33626870       1.35496962       1.38394333       0.00000000
Si       1.36003581      -1.36155078      -1.35982718       0.00000000
Si       0.09474264      -2.59491555       2.61355709       0.00000000
Si      -2.71438641       2.71106325      -0.00127289       0.00000000
Si       0.00219915       2.71171485      -2.71507884       0.00000000
Si      -2.71301805      -0.00309510      -2.71535406       0.00000000
Si       2.71318095       2.71523349       0.00340585       0.00000000
Si      -2.71181259      -2.71930599       0.00491956       0.00000000
