10
Lattice="16.28999089631971 0.0 0.0 0.0 16.28999089631971 0.0 0.0 0.0 34.40246978574605" Properties=species:S:1:pos:R:3:initial_magmoms:R:1 pbc="T T T"
Si      -1.33827335      -1.34881200      -1.36888880       0.00000000
Si       1.36075420      -1.35270531       1.35786624       0.00000000
Si      -1.35491538       1.35966114       1.35803825       0.00000000
Si       1.38295747       1.35031068      -1.35223455       0.00000000
Si      -2.61702664       0.06411744      -2.74753070       0.00000000
Si       0.00111098      -2.71250980       2.71476921       0.00000000
Si      -2.71175299       2.71663443      -0.00268339       0.00000000
Si      -2.71361005       0.00184077       2.71521645       0.00000000
Si       2.71758088       2.71239903      -0.00048163       0.00000000
Si       2.71663606      -2.71351327       0.00072245       0.00000000
