10
Lattice="16.28999089631971 0.0 0.0 0.0 16.28999089631971 0.0 0.0 0.0 34.40246978574605" Properties=species:S:1:pos:R:3:initial_magmoms:R:1 pbc="T T T"
Si      -1.35677781       1.35684297       1.35707498       0.00000000
Si      -1.35532800      -1.35830907      -1.35735020       0.00000000
Si       1.35824391       1.35775521      -1.35690297       0.00000000
Si       1.35788553      -1.35728280       1.35821027       0.00000000
Si      -0.00130320      -2.71347417      -2.71449399       0.00000000
Si       2.71340901      -0.00136836      -2.71476921       0.00000000
Si      -2.71549413      -0.00027693       2.71328991       0.00000000
Si       0.00285075      -2.71355562       2.71545726       0.00000000
Si      -2.71425609      -2.71510317       0.00013761       0.00000000
Si       2.71624347       0.00314397       2.71370274       0.00000000
