10
Lattice="16.28999089631971 0.0 0.0 0.0 16.28999089631971 0.0 0.0 0.0 34.40246978574605" Properties=species:S:1:pos:R:3:initial_magmoms:R:1 pbc="T T T"
Si      -1.34664543      -1.34493498       1.35098574       0.00000000
Si       1.35358497      -1.34649882      -1.36024001       0.00000000
Si      -1.36412460       1.36529748      -1.35765983       0.00000000
Si       1.35676152       1.36322865       1.38638590       0.00000000
Si      -2.47521663       0.19489356       2.70379482       0.00000000
Si       2.70620883      -2.70340695       0.00275220       0.00000000
Si      -0.00477297      -2.70692559      -2.71573248       0.00000000
Si       2.71046052       0.00737937      -2.71673015       0.00000000
Si      -2.72135853      -2.70757719      -0.00192654       0.00000000
Si       2.70154989       2.72904741      -0.00182333       0.00000000
