10
Lattice="16.28999089631971 0.0 0.0 0.0 16.28999089631971 0.0 0.0 0.0 34.40246978574605" Properties=species:S:1:pos:R:3:initial_magmoms:R:1 pbc="T T T"
Si       1.87637994      -1.03281858      -0.99258061       0.00000000
Si       1.24616871       1.33905429       1.55059728       0.00000000
Si      -0.45012528       1.36479249      -2.01925409       0.00000000
Si      -1.54629567      -1.45038015       1.34690014       0.00000000
Si      -1.00973565      -0.53932932      -3.36865732       0.00000000
Si       3.47539005       0.80501922      -0.85259689       0.00000000
Si       2.17671867       2.96160345       0.07637353       0.00000000
Si       0.95032602      -2.02991319      -2.94843092       0.00000000
Si       2.52674190      -0.19196136       2.84795986       0.00000000
Si      -0.21830229       2.52451017       2.86177590       0.00000000
