10
Lattice="16.28999089631971 0.0 0.0 0.0 16.28999089631971 0.0 0.0 0.0 34.40246978574605" Properties=species:S:1:pos:R:3:initial_magmoms:R:1 pbc="T T T"
Si      -0.52057953      -2.27413287       0.01083678       0.00000000
Si      -1.46199492       0.59233698      -1.72958514       0.00000000
Si      -0.71030916       0.36424440       2.24386794       0.00000000
Si       2.23321239       0.70856613      -0.47041963       0.00000000
Si       0.50420808      -1.43513271       3.20830732       0.00000000
Si      -0.57355461       2.69522937       2.28281156       0.00000000
Si      -3.23262018       1.62421074      -0.57541603       0.00000000
Si      -2.81864241      -2.29234509      -0.47344705       0.00000000
Si       2.75074569      -0.38387385      -2.51361786       0.00000000
Si       2.00982762       3.08748998      -0.74949263       0.00000000
