10
Lattice="16.28999089631971 0.0 0.0 0.0 16.28999089631971 0.0 0.0 0.0 34.40246978574605" Properties=species:S:1:pos:R:3:initial_magmoms:R:1 pbc="T T T"
Si       0.97770951       1.68436549       1.42735036       0.00000000
Si      -1.76083497      -1.00087389       1.48951222       0.00000000
Si      -0.06213006       1.56737886      -1.98708777       0.00000000
Si       1.91430306      -1.93435605       0.14552253       0.00000000
Si      -2.14912341      -1.72423134      -1.64268445       0.00000000
Si       2.24976303       0.33892974       2.91872578       0.00000000
Si       1.08569592       0.14613759      -3.55229781       0.00000000
Si      -0.48071790      -2.37144933       2.93092491       0.00000000
Si       2.90260107       2.55817250       0.25993665       0.00000000
Si       2.16761256       2.67695918      -2.00236247       0.00000000
