10
Lattice="16.28999089631971 0.0 0.0 0.0 16.28999089631971 0.0 0.0 0.0 34.40246978574605" Properties=species:S:1:pos:R:3:initial_magmoms:R:1 pbc="T T T"
Si      -1.35788553       1.35661328       1.35704058       0.00000000
Si       1.35914081       1.35617345      -1.35862310       0.00000000
Si      -1.35780408      -1.35851059      -1.35865750       0.00000000
Si       1.36255806      -1.36194614       1.36271699       0.00000000
Si      -2.70244584      -0.02138551       2.72244097       0.00000000
Si      -2.71350675       2.71304900      -0.00216736       0.00000000
Si      -2.71337643      -0.00178864      -2.71538846       0.00000000
Si       0.00135207       2.71324448      -2.71552607       0.00000000
Si       2.71612685       2.71405898      -0.00061924       0.00000000
Si      -2.71363707      -2.71789758      -0.00330264       0.00000000
