10
Lattice="16.28999089631971 0.0 0.0 0.0 16.28999089631971 0.0 0.0 0.0 34.40246978574605" Properties=species:S:1:pos:R:3:initial_magmoms:R:1 pbc="T T T"
Si       1.27875329      -1.41292944       1.37864190       0.00000000
Si       1.51685379       1.36989126      -1.22397072       0.00000000
Si      -1.47209472       1.29748221       1.36825923       0.00000000
Si      -0.80733240      -1.91023056      -1.26836438       0.00000000
Si       2.68969633      -2.66868319      -0.13413186       0.00000000
Si       2.61702664      -0.06411744       2.74753070       0.00000000
Si      -0.09472635       2.65251699       2.74484731       0.00000000
Si      -2.73222396      -2.78403756      -0.10095066       0.00000000
Si      -0.09909207      -2.77917500       2.74412486       0.00000000
Si      -2.90437668       2.62928745      -0.05966080       0.00000000
