10
Lattice="16.28999089631971 0.0 0.0 0.0 16.28999089631971 0.0 0.0 0.0 34.40246978574605" Properties=species:S:1:pos:R:3:initial_magmoms:R:1 pbc="T T T"
Si       1.35690813       1.35821133      -1.35600851       0.00000000
Si       1.35562122      -1.35643572       1.35920794       0.00000000
Si      -1.35736425      -1.35744570      -1.35659335       0.00000000
Si      -1.36003581       1.36155078       1.35982718       0.00000000
Si       2.70259245       0.02420694       2.70121463       0.00000000
Si       2.71350675      -2.71304900       0.00216736       0.00000000
Si       0.00013032      -2.71483764      -2.71322110       0.00000000
Si       2.71485882       0.00019548      -2.71335871       0.00000000
Si      -2.71549413       0.00114030      -2.71342752       0.00000000
Si      -0.00037467       2.71554300      -2.71394355       0.00000000
