10
Lattice="16.28999089631971 0.0 0.0 0.0 16.28999089631971 0.0 0.0 0.0 34.40246978574605" Properties=species:S:1:pos:R:3:initial_magmoms:R:1 pbc="T T T"
Si       1.35401340       1.34029233      -1.37021673       0.00000000
Si       1.32588057      -1.34420193       1.41315104       0.00000000
Si      -1.35935393      -1.37453391      -1.36904705       0.00000000
Si      -1.34075448       1.36339155       1.43169398       0.00000000
Si      -2.12967545      -0.37835154       2.93033521       0.00000000
Si      -0.40919503      -2.21330601       3.02102017       0.00000000
Si      -2.71113071       2.69547372      -0.00643327       0.00000000
Si       2.69942079       2.71057455      -0.00581402       0.00000000
Si      -0.00010426       2.69739594      -2.73007832       0.00000000
Si       2.69586957      -2.73305475       0.00794697       0.00000000
