10
Lattice="16.28999089631971 0.0 0.0 0.0 16.28999089631971 0.0 0.0 0.0 34.40246978574605" Properties=species:S:1:pos:R:3:initial_magmoms:R:1 pbc="T T T"
Si      -1.35620766      -1.35474156      -1.35721259       0.00000000
Si       1.35745864      -1.35703845       1.35710939       0.00000000
Si      -1.35791811       1.35697329       1.35748781       0.00000000
Si       1.35814617       1.35949824      -1.35710939       0.00000000
Si       2.71010118       0.00076563      -2.71459720       0.00000000
Si       2.71382833       0.00052128       2.71229223       0.00000000
Si      -0.00320913       2.71528236      -2.71253305       0.00000000
Si       2.71400915      -2.71476108       0.00006880       0.00000000
Si      -2.71479366       0.00309510       2.71397796       0.00000000
Si       2.71418997       2.71459818       0.00017201       0.00000000
