10
Lattice="16.28999089631971 0.0 0.0 0.0 16.28999089631971 0.0 0.0 0.0 34.40246978574605" Properties=species:S:1:pos:R:3:initial_magmoms:R:1 pbc="T T T"
Si       0.87198741       0.08798229      -2.18761987       0.00000000
Si      -0.54097461       1.99987443       1.12324127       0.00000000
Si      -2.12530743      -1.01960739       0.26593124       0.00000000
Si       1.52205356      -1.30996035       1.33732796       0.00000000
Si       0.18427248      -2.23153452      -2.76461842       0.00000000
Si       0.67517163       1.66200354       3.17032697       0.00000000
Si       0.33316308      -3.33342270       1.70065264       0.00000000
Si       2.92707584       1.47440790      -1.88756136       0.00000000
Si      -1.96905375      -2.97935955       1.40971079       0.00000000
Si       0.04054581       3.85380675      -0.19268834       0.00000000
