10
Lattice="16.28999089631971 0.0 0.0 0.0 16.28999089631971 0.0 0.0 0.0 34.40246978574605" Properties=species:S:1:pos:R:3:initial_magmoms:R:1 pbc="T T T"
Si      -1.34861652       1.34980569      -1.35979278       0.00000000
Si       1.36787130      -1.36233270      -1.35624932       0.00000000
Si      -1.34478837      -1.36581876       1.38820924       0.00000000
Si       1.36213722       1.34032491       1.39832357       0.00000000
Si       2.19307383      -0.51204357       2.80043141       0.00000000
Si       0.44497764      -2.37457701       2.75030698       0.00000000
Si      -2.70627399       2.70999162      -0.00134170       0.00000000
Si      -2.70612738      -0.00521280      -2.71566368       0.00000000
Si       0.00721647       2.70919268      -2.71514764       0.00000000
Si      -2.70154989      -2.72904741       0.00182333       0.00000000
