10
Lattice="16.28999089631971 0.0 0.0 0.0 16.28999089631971 0.0 0.0 0.0 34.40246978574605" Properties=species:S:1:pos:R:3:initial_magmoms:R:1 pbc="T T T"
Si       0.72443422      -2.23376625       0.30972561       0.00000000
Si      -1.62421304       0.33664914       1.74833449       0.00000000
Si       1.81756164       1.60104636      -0.11383784       0.00000000
Si       0.52595034      -0.40835772      -2.41419467       0.00000000
Si      -0.93649811       2.65616595       2.32533304       0.00000000
Si       1.85151000      -2.65737141      -1.78115447       0.00000000
Si      -1.20326315      -3.37103631       0.96719158       0.00000000
Si      -1.76515412      -1.92511962       2.74084630       0.00000000
Si       2.11969227      -2.39640561       2.17358366       0.00000000
Si       3.38350305       0.89427213      -1.70478094       0.00000000
