10
Lattice="16.28999089631971 0.0 0.0 0.0 16.28999089631971 0.0 0.0 0.0 34.40246978574605" Properties=species:S:1:pos:R:3:initial_magmoms:R:1 pbc="T T T"
Si      -1.35766887      -1.35589815       1.35525165       0.00000000
Si       1.35778779      -1.35650088      -1.35669656       0.00000000
Si      -1.35730723       1.35817875      -1.35686857       0.00000000
Si       1.35834165       1.35850455       1.35993039       0.00000000
Si      -2.70518668      -0.00864999       2.71270506       0.00000000
Si      -2.71403856      -2.71345788       0.00006880       0.00000000
Si      -2.71335104       0.00307881      -2.71414997       0.00000000
Si       0.00052128      -2.71287144      -2.71501003       0.00000000
Si      -0.00355122      -2.71300176       2.71511324       0.00000000
Si       2.71379997       0.00169416      -2.71452840       0.00000000
