10
Lattice="16.28999089631971 0.0 0.0 0.0 16.28999089631971 0.0 0.0 0.0 34.40246978574605" Properties=species:S:1:pos:R:3:initial_magmoms:R:1 pbc="T T T"
Si      -1.35401340      -1.34029233       1.37021673       0.00000000
Si      -1.35411765       1.35710361      -1.35986159       0.00000000
Si       1.36155078      -1.35881406      -1.35755662       0.00000000
Si       1.34540739       1.37028222       1.36440271       0.00000000
Si       2.69477325      -0.00812871       2.68160521       0.00000000
Si      -2.70163546       2.70435177      -0.00240817       0.00000000
Si      -2.71048734      -0.00045612      -2.71504443       0.00000000
Si       0.00355122       2.71300176      -2.71511324       0.00000000
Si      -2.71336733      -2.71482624       0.00116968       0.00000000
Si       0.00369783      -2.71590138      -2.71483802       0.00000000
