10
Lattice="16.28999089631971 0.0 0.0 0.0 16.28999089631971 0.0 0.0 0.0 34.40246978574605" Properties=species:S:1:pos:R:3:initial_magmoms:R:1 pbc="T T T"
Si      -1.41518235      -1.34708526       1.26924543       0.00000000
Si      -1.44630765       1.23768162      -1.38672993       0.00000000
Si       1.26853488      -1.47359340      -1.40159180       0.00000000
Si       1.34791605       1.16789526       1.62572402       0.00000000
Si       2.51805933       2.44609011      -0.05521599       0.00000000
Si       0.17171289      -2.96329761       2.09862063       0.00000000
Si      -0.07986987       2.59626762      -2.76403358       0.00000000
Si      -2.47714211       0.03082068       2.89947618       0.00000000
Si       2.64647340      -0.13582602      -2.76430880       0.00000000
Si       2.61790074      -2.85200433      -0.08438931       0.00000000
