10
Lattice="16.28999089631971 0.0 0.0 0.0 16.28999089631971 0.0 0.0 0.0 34.40246978574605" Properties=species:S:1:pos:R:3:initial_magmoms:R:1 pbc="T T T"
Si      -0.70499862       1.13968098       1.93844265       0.00000000
Si       1.98775467       1.01330316      -0.76194633       0.00000000
Si       0.60145938      -2.30840703      -0.05889706       0.00000000
Si      -1.51037622       0.29001087      -1.84676001       0.00000000
Si       0.05556519      -0.41676336      -3.43770312       0.00000000
Si       0.45506115      -2.50548345      -2.45681935       0.00000000
Si      -2.20934754       2.73155607       0.89246937       0.00000000
Si       1.45697760       3.29825259      -0.78358549       0.00000000
Si      -1.47717720      -0.65523267       3.33745426       0.00000000
Si       3.70972170       0.50889960       0.80966258       0.00000000
