10
Lattice="16.28999089631971 0.0 0.0 0.0 16.28999089631971 0.0 0.0 0.0 34.40246978574605" Properties=species:S:1:pos:R:3:initial_magmoms:R:1 pbc="T T T"
Si      -0.73968817      -1.09322190      -1.94539195       0.00000000
Si       2.30114169       0.01500309      -0.49470779       0.00000000
Si      -1.06632385      -0.53224317       2.03827867       0.00000000
Si      -0.13766679       2.41774551       0.35097419       0.00000000
Si       2.72437218      -1.43583318       1.35931115       0.00000000
Si       0.90450225      -1.08879102       3.22227473       0.00000000
Si       0.47923551       3.23310888      -1.83981071       0.00000000
Si      -2.86838297      -2.05892568      -1.60735309       0.00000000
Si       2.69148267       0.01141929      -2.84979898       0.00000000
Si      -0.96048609       0.42867135      -3.78196882       0.00000000
