10
Lattice="16.28999089631971 0.0 0.0 0.0 16.28999089631971 0.0 0.0 0.0 34.40246978574605" Properties=species:S:1:pos:R:3:initial_magmoms:R:1 pbc="T T T"
Si       0.48884661      -1.94649210      -1.34675424       0.00000000
Si      -0.28440711       0.28155636       2.39283072       0.00000000
Si      -1.94564502       1.20461292      -0.83632451       0.00000000
Si       2.61913878       0.67333086      -1.36137530       0.00000000
Si       1.65898989      -0.66829725      -3.02769425       0.00000000
Si      -0.87159645       2.19409715      -2.78126922       0.00000000
Si      -3.57221015      -0.60193179      -0.53967185       0.00000000
Si       0.63672723       3.48711952      -1.31988589       0.00000000
Si       3.67217325      -1.07004123       0.09901036       0.00000000
Si       2.32611426      -3.05525466      -0.33900213       0.00000000
