10
Lattice="16.28999089631971 0.0 0.0 0.0 16.28999089631971 0.0 0.0 0.0 34.40246978574605" Properties=species:S:1:pos:R:3:initial_magmoms:R:1 pbc="T T T"
Si      -2.26071547       0.40816224       0.37777373       0.00000000
Si       0.76887334       1.73705157      -1.39725709       0.00000000
Si       0.97259608       0.48438315       2.13725463       0.00000000
Si       0.62581456      -1.97123661      -1.31709929       0.00000000
Si      -2.84223589      -1.44577008       1.69370334       0.00000000
Si       1.14645925       2.87828010       1.97497809       0.00000000
Si       3.12940837       1.64972088      -1.07494017       0.00000000
Si      -2.56442623       2.49652395       1.48002948       0.00000000
Si       2.90542087      -0.95120568       2.44422804       0.00000000
Si      -3.46055542       0.85737528      -1.62421031       0.00000000
