10
Lattice="10.86 0.0 0.0 0.0 10.86 0.0 0.0 0.0 10.86" Properties=species:S:1:pos:R:3:initial_magmoms:R:1 pbc="T T T"
Si      -1.30299366      -1.41044250       1.23635670       0.00000000
Si       1.41200634       1.30455750       1.23635670       0.00000000
Si      -1.30299366       1.30455750      -1.47864330       0.00000000
Si      -2.66049366      -0.05294250       2.59385670       0.00000000
Si       0.05450634       2.66205750       2.59385670       0.00000000
Si       2.59381326       0.10729680      -2.71530408       0.00000000
Si      -2.66049366       2.66205750      -0.12114330       0.00000000
Si       0.05450634      -2.76794250       2.59385670       0.00000000
Si       2.76950634      -0.05294250       2.59385670       0.00000000
Si       2.76950634       2.66205750      -0.12114330       0.00000000
