10
Lattice="16.28999089631971 0.0 0.0 0.0 16.28999089631971 0.0 0.0 0.0 34.385447050020396" Properties=species:S:1:pos:R:3:initial_magmoms:R:1 pbc="T T T"
Si       1.33830495       1.36155078       1.38379151       0.00000000
Si      -1.36954917      -1.36225777       1.39087492       0.00000000
Si      -1.65229470       1.13101470      -1.29769718       0.00000000
Si       1.59549147      -1.29491979      -1.52529114       0.00000000
Si      -3.45421305      -0.80280378      -1.15638323       0.00000000
Si       2.69467551       2.72101644      -0.00419847       0.00000000
Si       2.70371646      -2.71342690       0.01948281       0.00000000
Si      -2.70681156      -2.72021766       0.00598995       0.00000000
Si       2.69351892       0.00482184       2.74617807       0.00000000
Si      -0.02238246      -2.70769462       2.74824120       0.00000000
