10
Lattice="16.28999089631971 0.0 0.0 0.0 16.28999089631971 0.0 0.0 0.0 34.385447050020396" Properties=species:S:1:pos:R:3:initial_magmoms:R:1 pbc="T T T"
Si      -0.81524934       1.94356544       0.97981386       0.00000000
Si       1.83347208      -0.98792499       1.07165744       0.00000000
Si      -1.44498816      -1.77245139       0.56687880       0.00000000
Si       0.09578520       0.32833863      -2.35681424       0.00000000
Si      -3.44616579      -0.43095360       0.44315989       0.00000000
Si      -3.02594895       1.89485834      -0.00361047       0.00000000
Si      -1.14420960      -3.21760245      -1.29268722       0.00000000
Si      -0.72979200       1.55384999       3.31603121       0.00000000
Si      -0.38669202      -1.83880056      -3.24347788       0.00000000
Si       1.92839391      -3.24918876       0.41039054       0.00000000
