10
Lattice="16.28999089631971 0.0 0.0 0.0 16.28999089631971 0.0 0.0 0.0 34.385447050020396" Properties=species:S:1:pos:R:3:initial_magmoms:R:1 pbc="T T T"
Si       1.19189043      -1.43605147      -1.49686812       0.00000000
Si      -2.29105818      -0.70788032      -0.00457327       0.00000000
Si       0.40949802       2.13801363      -1.26363150       0.00000000
Si       0.63869832      -1.78560296       2.19809093       0.00000000
Si      -2.04560046      -3.07744883      -0.51230906       0.00000000
Si      -0.23040576       1.48462173      -3.46416380       0.00000000
Si      -0.93517632       3.69245430      -0.06632956       0.00000000
Si       0.10756287      -3.57709571      -1.58888363       0.00000000
Si       3.23951085      -2.17964177      -0.38394812       0.00000000
Si       1.15297362      -0.50397839      -3.74272046       0.00000000
