10
Lattice="16.28999089631971 0.0 0.0 0.0 16.28999089631971 0.0 0.0 0.0 34.385447050020396" Properties=species:S:1:pos:R:3:initial_magmoms:R:1 pbc="T T T"
Si       1.34640108       1.34780202      -1.38631884       0.00000000
Si      -1.36611198      -1.36982610      -1.38549359       0.00000000
Si       1.56141279      -1.23051402       1.42204534       0.00000000
Si      -1.37212299       1.47416355       1.38604376       0.00000000
Si       0.12642669      -2.55580326       2.77707341       0.00000000
Si       2.70376533       2.70777267       0.00395433       0.00000000
Si      -2.70782154      -2.71800279      -0.02798977       0.00000000
Si      -2.71816569       2.71098180      -0.05567007       0.00000000
Si       2.71754667      -2.73087189      -0.00894022       0.00000000
Si       2.70601335      -0.00926901      -2.74519808       0.00000000
