10
Lattice="16.28999089631971 0.0 0.0 0.0 16.28999089631971 0.0 0.0 0.0 34.385447050020396" Properties=species:S:1:pos:R:3:initial_magmoms:R:1 pbc="T T T"
Si      -1.18731294      -1.43242857       1.36372759       0.00000000
Si      -0.74360592       0.99445563      -1.95677373       0.00000000
Si       2.29117221      -0.20137698       0.35423907       0.00000000
Si       0.39377817       2.29959414       0.68898159       0.00000000
Si       2.22658236       1.35897696       2.19870987       0.00000000
Si      -1.55554839      -0.85428018      -3.11869302       0.00000000
Si      -3.31400176      -1.57157775       0.24307086       0.00000000
Si       2.67841809      -2.05788312      -1.56316330       0.00000000
Si       1.17986841       1.97208369      -2.95419295       0.00000000
Si      -1.34866539      -0.76139460       3.56587601       0.00000000
