10
Lattice="16.28999089631971 0.0 0.0 0.0 16.28999089631971 0.0 0.0 0.0 34.385447050020396" Properties=species:S:1:pos:R:3:initial_magmoms:R:1 pbc="T T T"
Si      -1.35474156      -1.84733487      -0.18822604       0.00000000
Si      -1.10477151       2.01196161      -0.38556423       0.00000000
Si       1.52062263       0.06685416       1.85475205       0.00000000
Si      -0.71752563       0.15545547      -2.30296660       0.00000000
Si      -3.39196896      -1.31101920       0.90144938       0.00000000
Si       0.16392627      -0.17643699       3.79897508       0.00000000
Si      -0.21870954      -3.73566353       0.77714592       0.00000000
Si       2.02307139      -3.33369311       0.12636659       0.00000000
Si       2.83309164      -1.92559203       1.88449548       0.00000000
Si       0.71746047       1.48074471      -3.65799467       0.00000000
