10
Lattice="16.28999089631971 0.0 0.0 0.0 16.28999089631971 0.0 0.0 0.0 34.385447050020396" Properties=species:S:1:pos:R:3:initial_magmoms:R:1 pbc="T T T"
Si      -1.35211887      -1.35117405       1.33401855       0.00000000
Si       1.35700587      -1.35557235      -1.35499368       0.00000000
Si      -1.35778779       1.35785295      -1.35575016       0.00000000
Si       1.35224919       1.36220238       1.37253027       0.00000000
Si      -0.15069879       2.56451841       2.78993358       0.00000000
Si      -0.00607617      -2.58799230       2.77573238       0.00000000
Si      -2.71381626      -2.71156824       0.00240698       0.00000000
Si      -0.00063531      -2.71362078      -2.71301329       0.00000000
Si       2.71244790      -2.71435383       0.00336978       0.00000000
Si       2.71370223       0.00144981      -2.71325399       0.00000000
