10
Lattice="16.28999089631971 0.0 0.0 0.0 16.28999089631971 0.0 0.0 0.0 34.385447050020396" Properties=species:S:1:pos:R:3:initial_magmoms:R:1 pbc="T T T"
Si       0.22537215      -0.03451851      -2.30812442       0.00000000
Si      -0.13280911      -2.31954124       0.66862539       0.00000000
Si      -2.30499657       0.89366940      -0.24716273       0.00000000
Si       2.35028536       0.77890635       1.33367469       0.00000000
Si       1.27569922      -0.11344356       3.28474044       0.00000000
Si       0.17102871      -2.22158785       2.98606828       0.00000000
Si      -1.39808340      -1.55727839      -3.14939924       0.00000000
Si       2.28659146      -1.12821119      -2.83841708       0.00000000
Si       0.61779825       2.10427704      -3.20500054       0.00000000
Si       2.58313462       2.91446019       0.11780461       0.00000000
