10
Lattice="16.28999089631971 0.0 0.0 0.0 16.28999089631971 0.0 0.0 0.0 34.385447050020396" Properties=species:S:1:pos:R:3:initial_magmoms:R:1 pbc="T T T"
Si      -1.30823361      -1.81913688      -0.77518595       0.00000000
Si       2.33820144       0.29554947       0.56185852       0.00000000
Si      -1.12744719       0.26479395       2.13382449       0.00000000
Si       0.37558224       0.65844180      -2.32208492       0.00000000
Si       0.41563935      -2.95557615      -1.79650307       0.00000000
Si       1.56506175      -1.28016594      -2.96203284       0.00000000
Si       2.19354624       2.64989430       1.14170064       0.00000000
Si       0.47107422      -0.15084540       3.78494581       0.00000000
Si       2.17803816       2.15466201      -2.29574566       0.00000000
Si      -1.77435567       0.84756870      -3.32232375       0.00000000
