10
Lattice="16.28999089631971 0.0 0.0 0.0 16.28999089631971 0.0 0.0 0.0 34.385447050020396" Properties=species:S:1:pos:R:3:initial_magmoms:R:1 pbc="T T T"
Si       1.59852141      -0.41563935       1.65112132       0.00000000
Si      -1.27319382       1.95831864       0.23010754       0.00000000
Si      -1.22319981      -1.94486310       0.67316427       0.00000000
Si       1.12744719      -0.26479395      -2.13382449       0.00000000
Si      -2.50870887       1.79615169      -1.77879456       0.00000000
Si      -0.18078642      -2.08393083      -2.90901045       0.00000000
Si       2.70330921      -2.44991826       0.88343140       0.00000000
Si       3.46564863       0.03075552      -1.57196598       0.00000000
Si       2.40997518       1.73249037       2.41269063       0.00000000
Si       0.58354038      -1.15965252       3.66139883       0.00000000
