10
Lattice="16.28999089631971 0.0 0.0 0.0 16.28999089631971 0.0 0.0 0.0 34.385447050020396" Properties=species:S:1:pos:R:3:initial_magmoms:R:1 pbc="T T T"
Si       1.01498103       0.74401317      -2.01027751       0.00000000
Si      -1.90417068      -1.34869797      -0.64857866       0.00000000
Si       2.13542352      -0.50477823       1.09046629       0.00000000
Si      -1.00074357       1.94250105       1.18502632       0.00000000
Si       2.50110144      -2.25315135      -0.64720325       0.00000000
Si      -1.80674019      -0.78521058      -2.98823456       0.00000000
Si       1.20873429      -0.45820512       3.35681237       0.00000000
Si       1.82643480       2.89214289      -1.24870821       0.00000000
Si      -3.61452294      -0.30465558       0.77295090       0.00000000
Si       2.11976883      -1.29026574      -2.77796743       0.00000000
