10
Lattice="16.28999089631971 0.0 0.0 0.0 16.28999089631971 0.0 0.0 0.0 34.385447050020396" Properties=species:S:1:pos:R:3:initial_magmoms:R:1 pbc="T T T"
Si      -1.35483930       1.35715626       1.36379636       0.00000000
Si       1.36298430      -1.36031274       1.36190516       0.00000000
Si       1.37125962       1.35142399      -1.36496203       0.00000000
Si      -1.36358703      -1.36192545      -1.39522812       0.00000000
Si      -2.70200601       2.70259312       0.00643008       0.00000000
Si      -2.71164969      -2.71412577      -0.00103156       0.00000000
Si      -2.71130760      -0.00122175       2.71748340       0.00000000
Si       0.00335574       2.71173833       2.71920267       0.00000000
Si       2.71852407       2.71279555       0.00350732       0.00000000
Si       0.00353493      -2.71722087       2.71837742       0.00000000
