10
Lattice="16.28999089631971 0.0 0.0 0.0 16.28999089631971 0.0 0.0 0.0 34.385447050020396" Properties=species:S:1:pos:R:3:initial_magmoms:R:1 pbc="T T T"
Si      -1.67019741       0.83368962      -1.38037016       0.00000000
Si       0.44918046      -1.79910737      -1.44951933       0.00000000
Si      -0.15791526      -1.15995877       2.07619445       0.00000000
Si       1.87181874       1.47852927      -0.00457327       0.00000000
Si       2.41737084      -2.18394233      -0.33364218       0.00000000
Si      -0.43212483       0.82554462       3.32314900       0.00000000
Si       3.33756036      -0.10050278      -0.92338731       0.00000000
Si      -2.77486792      -1.27445467      -1.67904232       0.00000000
Si       1.12322808       2.75902101      -1.81881924       0.00000000
Si       2.04768558      -2.06136008       1.98875221       0.00000000
