10
Lattice="16.28999089631971 0.0 0.0 0.0 16.28999089631971 0.0 0.0 0.0 34.385447050020396" Properties=species:S:1:pos:R:3:initial_magmoms:R:1 pbc="T T T"
Si       0.36968526      -0.12258225      -2.32239439       0.00000000
Si       0.56324304      -1.96633332       1.17312895       0.00000000
Si       1.20339117       1.58230539       1.29622892       0.00000000
Si      -2.20560084       0.90140130       0.08744224       0.00000000
Si      -2.04768558       2.06136008      -1.98875221       0.00000000
Si       1.28987478       1.96085729      -2.91213952       0.00000000
Si       0.15798042      -1.49081193       3.45006576       0.00000000
Si      -1.59850512       0.26225271      -3.43827154       0.00000000
Si       1.24230798       0.65023231       3.54208127       0.00000000
Si      -3.69108920      -0.84302379       0.66752506       0.00000000
