10
Lattice="16.28999089631971 0.0 0.0 0.0 16.28999089631971 0.0 0.0 0.0 34.385447050020396" Properties=species:S:1:pos:R:3:initial_magmoms:R:1 pbc="T T T"
Si       1.66478913       1.02378740      -1.23450701       0.00000000
Si      -2.07699129       0.32519727      -0.96753825       0.00000000
Si       0.65454849      -2.13250502      -0.77542665       0.00000000
Si      -0.00498474       0.47963624       2.37844270       0.00000000
Si      -2.99718081      -1.75824227      -0.37779312       0.00000000
Si       2.73031803      -2.26578980       0.35492678       0.00000000
Si       0.70600860       3.01061354      -1.86623680       0.00000000
Si       3.32573382       1.55454818       0.30503347       0.00000000
Si       3.47591133      -0.43413665       1.61346923       0.00000000
Si      -2.16347490      -0.05335464       3.24083020       0.00000000
