10
Lattice="16.28999089631971 0.0 0.0 0.0 16.28999089631971 0.0 0.0 0.0 34.385447050020396" Properties=species:S:1:pos:R:3:initial_magmoms:R:1 pbc="T T T"
Si       1.54302138       0.04263419      -1.78721899       0.00000000
Si      -1.93787469       0.95640708      -1.02224553       0.00000000
Si       1.38795687       1.49562237       1.25720142       0.00000000
Si      -0.91816956      -1.92865685       1.08785300       0.00000000
Si       0.52465203       3.50321826       0.30867833       0.00000000
Si      -1.74029328       3.11232342      -0.07729853       0.00000000
Si       0.79742808      -1.78901897      -3.04576145       0.00000000
Si       0.88870095      -3.09588422       2.03802659       0.00000000
Si      -1.93288995       0.47677083      -3.40068823       0.00000000
Si       1.39284387       2.03131902      -3.09565476       0.00000000
