10
Lattice="16.28999089631971 0.0 0.0 0.0 16.28999089631971 0.0 0.0 0.0 34.385447050020396" Properties=species:S:1:pos:R:3:initial_magmoms:R:1 pbc="T T T"
Si       1.34262180       1.35624024       1.38341671       0.00000000
Si      -1.37013561      -1.35897696       1.38296970       0.00000000
Si      -1.41568245       1.34965908      -1.40435746       0.00000000
Si       1.63165527      -1.10983770      -1.48893539       0.00000000
Si       2.71080261      -2.68885998       0.02479536       0.00000000
Si      -2.72070693       2.70467757       0.03374246       0.00000000
Si       2.69871543       2.73134430       0.01227561       0.00000000
Si      -2.72487717      -2.71551042      -0.00361047       0.00000000
Si       2.70615996      -0.00026064       2.74535626       0.00000000
Si      -0.01141929      -2.71661814       2.74532187       0.00000000
