10
Lattice="16.28999089631971 0.0 0.0 0.0 16.28999089631971 0.0 0.0 0.0 34.385447050020396" Properties=species:S:1:pos:R:3:initial_magmoms:R:1 pbc="T T T"
Si      -0.17129261       0.53734194      -2.31878392       0.00000000
Si      -0.18729590       2.23086663       0.83735487       0.00000000
Si      -2.25821332      -0.76730787       0.26346144       0.00000000
Si       1.60820907      -1.39061214       1.17024057       0.00000000
Si      -3.26110717       1.20068703      -0.58874795       0.00000000
Si       2.04033390      -2.21615676      -2.15290843       0.00000000
Si       0.54719250      -1.74322548       3.25382790       0.00000000
Si      -0.69463655       1.91842443       3.14798944       0.00000000
Si       0.37013649      -1.38246714      -3.53327859       0.00000000
Si      -2.15382700       3.17788578      -0.08166548       0.00000000
