10
Lattice="16.28999089631971 0.0 0.0 0.0 16.28999089631971 0.0 0.0 0.0 34.385447050020396" Properties=species:S:1:pos:R:3:initial_magmoms:R:1 pbc="T T T"
Si       1.35871632      -1.35764118       1.36235217       0.00000000
Si      -1.35560493       1.36078515       1.36410583       0.00000000
Si      -1.35474156      -1.35653346      -1.38658017       0.00000000
Si       1.37013561       1.35897696      -1.38296970       0.00000000
Si       0.22810887      -2.57504175      -2.82205992       0.00000000
Si      -2.71163340       2.71480995       0.00594869       0.00000000
Si      -2.71111212      -2.71599912       0.00140980       0.00000000
Si       2.71275741       2.71521720       0.00044701       0.00000000
Si       2.71487511      -2.71723716       0.00161612       0.00000000
Si      -2.71409319       0.00083079       2.72075002       0.00000000
