10
Lattice="16.28999089631971 0.0 0.0 0.0 16.28999089631971 0.0 0.0 0.0 34.385447050020396" Properties=species:S:1:pos:R:3:initial_magmoms:R:1 pbc="T T T"
Si      -1.47198069       1.12024701      -1.37328675       0.00000000
Si       2.07210429       0.99507465       0.48621049       0.00000000
Si      -1.06067448      -0.10386504       2.10432176       0.00000000
Si       0.48633795      -1.41771870      -1.82837840       0.00000000
Si       3.04895043      -0.85919976       1.60009329       0.00000000
Si       1.57595976       2.62791909       2.15057022       0.00000000
Si       2.29723209      -0.36222444      -2.93538410       0.00000000
Si      -0.32255829       2.79565722      -2.53881652       0.00000000
Si      -0.02707398      -1.79277966       3.36124810       0.00000000
Si       3.16444653       1.39370724      -1.63396297       0.00000000
