10
Lattice="16.28999089631971 0.0 0.0 0.0 16.28999089631971 0.0 0.0 0.0 34.385447050020396" Properties=species:S:1:pos:R:3:initial_magmoms:R:1 pbc="T T T"
Si      -1.30018635       1.15588790      -1.61639200       0.00000000
Si       2.29105818       0.70788032       0.00457327       0.00000000
Si       0.24545772      -2.36956851      -0.50773579       0.00000000
Si      -1.54114803       0.38233445       1.87400791       0.00000000
Si      -0.67989573      -2.91254679       1.71820736       0.00000000
Si      -0.94633497       3.41003294      -0.64111702       0.00000000
Si      -2.26870178       2.53249064       1.20177205       0.00000000
Si      -2.87957678      -1.61014500       1.77435883       0.00000000
Si       2.92975650      -1.07772264       2.20266420       0.00000000
Si       3.48294861      -0.72817114      -1.49229485       0.00000000
