10
Lattice="16.28999089631971 0.0 0.0 0.0 16.28999089631971 0.0 0.0 0.0 34.385447050020396" Properties=species:S:1:pos:R:3:initial_magmoms:R:1 pbc="T T T"
Si      -1.35672894      -1.35498591      -1.35691927       0.00000000
Si      -1.35796698       1.35765747       1.35685050       0.00000000
Si       1.35790182      -1.35808101       1.35691927       0.00000000
Si       1.35773892       1.36026387      -1.35719435       0.00000000
Si       0.00153126       2.71248048      -2.71277259       0.00000000
Si      -2.71275741      -0.00096111      -2.71507642       0.00000000
Si      -2.71454931       2.71459818      -0.00058455       0.00000000
Si       2.71430496      -0.00169416       2.71507642       0.00000000
Si      -2.71466334       0.00063531       2.71511080       0.00000000
Si       0.00039096      -2.71521720       2.71459502       0.00000000
