10
Lattice="16.28999089631971 0.0 0.0 0.0 16.28999089631971 0.0 0.0 0.0 34.385447050020396" Properties=species:S:1:pos:R:3:initial_magmoms:R:1 pbc="T T T"
Si      -1.35658233       1.35694071      -1.35743505       0.00000000
Si      -1.35669636      -1.35702216       1.35826030       0.00000000
Si       1.35796698      -1.35765747      -1.35685050       0.00000000
Si       1.35692442       1.35799956       1.35774452       0.00000000
Si       0.00123804      -2.71264338      -2.71376977       0.00000000
Si      -2.71370223      -0.00144981       2.71325399       0.00000000
Si       0.00286704       2.71384884      -2.71390731       0.00000000
Si      -2.71422351       2.71451673      -0.00003439       0.00000000
Si      -2.71433754      -2.71507059       0.00024070       0.00000000
Si       2.71570590       0.00260640      -2.71404485       0.00000000
