10
Lattice="16.28999089631971 0.0 0.0 0.0 16.28999089631971 0.0 0.0 0.0 34.385447050020396" Properties=species:S:1:pos:R:3:initial_magmoms:R:1 pbc="T T T"
Si      -0.72755375       2.15015620      -0.67223587       0.00000000
Si      -1.33842875      -1.99247944      -0.09964908       0.00000000
Si       0.47286612       0.53135374       2.31530896       0.00000000
Si       1.54114803      -0.38233445      -1.87400791       0.00000000
Si       0.86125230      -3.29488123      -0.15580055       0.00000000
Si       0.24096168       0.77355346      -3.49039991       0.00000000
Si       1.22026761      -1.38606014       3.47768214       0.00000000
Si      -2.47967099      -2.15722021      -2.21800012       0.00000000
Si       0.59481306       3.02769850      -2.51512493       0.00000000
Si       2.27478447       2.46517222       2.17399501       0.00000000
