10
Lattice="16.28999089631971 0.0 0.0 0.0 16.28999089631971 0.0 0.0 0.0 34.385447050020396" Properties=species:S:1:pos:R:3:initial_magmoms:R:1 pbc="T T T"
Si       1.12537836      -1.74345354       1.16549538       0.00000000
Si       1.45398024       0.56249370      -1.82053851       0.00000000
Si      -2.33820144      -0.29554947      -0.56185852       0.00000000
Si      -0.14465520       2.35434483       0.57984212       0.00000000
Si      -0.16016328       1.85911254      -2.85760417       0.00000000
Si      -1.96261920       0.36289233      -2.88394344       0.00000000
Si      -0.76233942      -2.48067378       2.45539738       0.00000000
Si      -1.86712722      -0.44639487       3.22308730       0.00000000
Si       3.12323283      -0.70721406       1.95863054       0.00000000
Si      -1.09418301       3.32597817      -1.36640966       0.00000000
