10
Lattice="16.28999089631971 0.0 0.0 0.0 16.28999089631971 0.0 0.0 0.0 34.385447050020396" Properties=species:S:1:pos:R:3:initial_magmoms:R:1 pbc="T T T"
Si      -0.96031179      -1.67728356       1.39499227       0.00000000
Si       1.77033204       1.06331346       1.27541338       0.00000000
Si       0.40386168      -1.21946940      -2.10552526       0.00000000
Si      -1.65182229       1.94569389       0.24584890       0.00000000
Si      -2.26533627      -0.32226507       2.83309219       0.00000000
Si       0.47702007       2.36902212       2.84622056       0.00000000
Si       0.06892299       0.63576612      -3.69238014       0.00000000
Si      -2.74572837      -2.77161318       0.01265385       0.00000000
Si       2.52856638       2.99025756      -0.05525744       0.00000000
Si      -3.50904519       1.06548003       1.43816666       0.00000000
