10
Lattice="16.28999089631971 0.0 0.0 0.0 16.28999089631971 0.0 0.0 0.0 34.385447050020396" Properties=species:S:1:pos:R:3:initial_magmoms:R:1 pbc="T T T"
Si      -1.08624978       1.58894289       1.33711668       0.00000000
Si       1.65229470      -1.13101470       1.29769718       0.00000000
Si      -1.80191835      -1.93381848       0.14131395       0.00000000
Si       0.89981073       1.96416675      -1.60704744       0.00000000
Si      -2.45050633       0.24086394       2.69228573       0.00000000
Si       0.28274553      -2.49327247       2.68857210       0.00000000
Si      -2.27195490       3.04372134      -0.07374995       0.00000000
Si       2.75564898       2.81175174      -0.13194735       0.00000000
Si      -2.27478447      -2.46517222      -2.17399501       0.00000000
Si       0.27582228       2.94774066       2.68991313       0.00000000
