10
Lattice="16.28999089631971 0.0 0.0 0.0 16.28999089631971 0.0 0.0 0.0 34.385447050020396" Properties=species:S:1:pos:R:3:initial_magmoms:R:1 pbc="T T T"
Si      -1.55562237      -1.16825364       1.32799353       0.00000000
Si       1.25557781       1.55305602       1.25730389       0.00000000
Si      -0.99829260       1.56328614      -1.46287675       0.00000000
Si       0.52519449      -1.80568134      -1.51517704       0.00000000
Si      -1.71585081      -1.17496512      -1.81880071       0.00000000
Si       2.44128293       0.09827757       2.66817051       0.00000000
Si      -0.25178834      -2.61749349       2.64775586       0.00000000
Si      -0.26649073       2.82579372       2.63960651       0.00000000
Si       2.96212310       2.49290757      -0.20987036       0.00000000
Si       1.84756130      -0.92813904      -3.35806611       0.00000000
