10
Lattice="16.28999089631971 0.0 0.0 0.0 16.28999089631971 0.0 0.0 0.0 34.385447050020396" Properties=species:S:1:pos:R:3:initial_magmoms:R:1 pbc="T T T"
Si      -1.35692442      -1.35799956      -1.35774452       0.00000000
Si       1.35817875       1.35726651      -1.35777891       0.00000000
Si      -1.35726651       1.35915615       1.35726312       0.00000000
Si       1.35920502      -1.35990549       1.36328058       0.00000000
Si      -0.00182448       2.69397504       2.72738641       0.00000000
Si      -2.71303434       2.71251306      -0.00037824       0.00000000
Si      -2.71362078      -2.71502172       0.00051578       0.00000000
Si      -2.71350675      -0.00105885      -2.71517957       0.00000000
Si       0.00136836       2.71438641      -2.71531711       0.00000000
Si       2.71567332       2.71450044      -0.00041263       0.00000000
