10
Lattice="16.28999089631971 0.0 0.0 0.0 16.28999089631971 0.0 0.0 0.0 34.385447050020396" Properties=species:S:1:pos:R:3:initial_magmoms:R:1 pbc="T T T"
Si      -1.35544203      -1.33481889      -1.37012329       0.00000000
Si       1.36212093       1.37880189      -1.36768192       0.00000000
Si      -1.32760242       1.32742323       1.45292349       0.00000000
Si       1.29823155      -1.44813213       1.45993813       0.00000000
Si       2.30625675       0.38817441       2.62870013       0.00000000
Si       0.52611813       2.12929589       2.78398489       0.00000000
Si      -2.71655298      -2.69122203       0.00065332       0.00000000
Si       2.72155401      -2.69589726       0.00790866       0.00000000
Si       0.00182448      -2.69397504      -2.72738641       0.00000000
Si      -2.71120986       0.01853802      -2.72776465       0.00000000
