10
Lattice="16.28999089631971 0.0 0.0 0.0 16.28999089631971 0.0 0.0 0.0 34.385447050020396" Properties=species:S:1:pos:R:3:initial_magmoms:R:1 pbc="T T T"
Si      -0.99812088      -1.74366761      -1.20915804       0.00000000
Si      -1.38303729       1.29931158       1.40930897       0.00000000
Si       1.35816246      -1.41164483       1.38376400       0.00000000
Si       0.94817574       1.85897082      -1.36115354       0.00000000
Si      -2.24528328      -0.50758174      -2.93005920       0.00000000
Si      -2.50960482       2.79421230      -0.04910245       0.00000000
Si      -0.02283858       2.65201689       2.77457359       0.00000000
Si      -2.63678085      -2.80631318       0.12096463       0.00000000
Si       2.69622306      -0.06787554       2.77563954       0.00000000
Si       2.76741036       2.74513053       0.08981828       0.00000000
