10
Lattice="16.28999089631971 0.0 0.0 0.0 16.28999089631971 0.0 0.0 0.0 34.385447050020396" Properties=species:S:1:pos:R:3:initial_magmoms:R:1 pbc="T T T"
Si      -1.35697329      -1.35706141      -1.35650664       0.00000000
Si       1.35707103      -1.35687901       1.35702243       0.00000000
Si      -1.35690813       1.35760697       1.35736628       0.00000000
Si       1.36071999       1.36045772      -1.35853539       0.00000000
Si      -0.00032580      -2.71439523       2.71445748       0.00000000
Si      -2.71463076      -2.71450926      -0.00044701       0.00000000
Si       2.71461447      -0.00054246       2.71473256       0.00000000
Si      -2.71451673       0.00006190      -2.71517957       0.00000000
Si      -2.71484253       2.71488977      -0.00034385       0.00000000
Si      -2.71432125      -0.00024598       2.71548904       0.00000000
