10
Lattice="16.28999089631971 0.0 0.0 0.0 16.28999089631971 0.0 0.0 0.0 34.385447050020396" Properties=species:S:1:pos:R:3:initial_magmoms:R:1 pbc="T T T"
Si       1.35907470      -1.35449260       1.35588771       0.00000000
Si      -1.35754344      -1.35633655      -1.35771014       0.00000000
Si       1.35827568       1.35811685      -1.35757259       0.00000000
Si      -1.35892809       1.35715574       1.35856977       0.00000000
Si       2.68417076       0.00895950       2.71655499       0.00000000
Si      -2.71494027      -2.71385277      -0.00027508       0.00000000
Si      -2.71461447       0.00054246      -2.71473256       0.00000000
Si       2.71391630      -2.71595418       0.00006877       0.00000000
Si       0.00003258      -2.71494420      -2.71517957       0.00000000
Si       0.00091224       2.71642592      -2.71407924       0.00000000
