10
Lattice="16.28999089631971 0.0 0.0 0.0 16.28999089631971 0.0 0.0 0.0 34.385447050020396" Properties=species:S:1:pos:R:3:initial_magmoms:R:1 pbc="T T T"
Si       1.35777901       1.33718094       1.38046644       0.00000000
Si      -1.36517335      -1.37402892       1.37857524       0.00000000
Si       1.52206855      -1.27273770      -1.38230262       0.00000000
Si      -1.04608483       1.72902060      -1.35111156       0.00000000
Si      -2.21282350       0.29370870      -3.02608062       0.00000000
Si       2.71365435       2.68517844      -0.01102742       0.00000000
Si      -2.71331746      -2.69980686       0.01335188       0.00000000
Si       2.70777366      -2.72751615       0.02856401       0.00000000
Si      -0.00448594       2.70342324       2.73408470       0.00000000
Si       2.70822978      -0.01179396       2.73649168       0.00000000
