10
Lattice="16.28999089631971 0.0 0.0 0.0 16.28999089631971 0.0 0.0 0.0 34.385447050020396" Properties=species:S:1:pos:R:3:initial_magmoms:R:1 pbc="T T T"
Si       1.15277814      -1.43670862       1.43297992       0.00000000
Si       0.11512143      -0.17659012      -2.32796484       0.00000000
Si       0.68365872       2.12720847       0.82494172       0.00000000
Si      -2.41732197      -0.18147712       0.06619202       0.00000000
Si      -2.56749948       1.80720771      -1.24224374       0.00000000
Si      -0.18673227       1.68548883       2.95178597       0.00000000
Si      -0.72808155       2.02099767      -2.72573591       0.00000000
Si      -1.43742960      -1.89175348      -2.72026862       0.00000000
Si       1.33200072      -0.08697883       3.48586103       0.00000000
Si      -3.16291527      -2.01313027      -1.19235043       0.00000000
