10
Lattice="16.28999089631971 0.0 0.0 0.0 16.28999089631971 0.0 0.0 0.0 34.385447050020396" Properties=species:S:1:pos:R:3:initial_magmoms:R:1 pbc="T T T"
Si      -1.42418583       1.29424050       1.32496486       0.00000000
Si       1.30383403      -1.44923985       1.31976233       0.00000000
Si       1.55562237       1.16825364      -1.32799353       0.00000000
Si      -1.81923462      -0.88615971      -1.45097181       0.00000000
Si      -0.16022844      -0.00671148      -3.14679424       0.00000000
Si       2.08081685      -0.63742770      -2.84317057       0.00000000
Si      -0.07604172       2.62001844       2.69018822       0.00000000
Si      -3.40708608       0.92546748      -1.30869400       0.00000000
Si       2.63264875      -0.08154774       2.69534604       0.00000000
Si      -2.50333317       2.87326278      -0.18876589       0.00000000
