10
Lattice="16.28999089631971 0.0 0.0 0.0 16.28999089631971 0.0 0.0 0.0 34.385447050020396" Properties=species:S:1:pos:R:3:initial_magmoms:R:1 pbc="T T T"
Si      -0.90375291      -1.94779530      -1.11992810       0.00000000
Si       1.07914734      -1.57902228       1.51373075       0.00000000
Si      -1.63165527       1.10983770       1.48893539       0.00000000
Si       1.57964130       1.41449328      -1.52570175       0.00000000
Si       2.42729145      -0.25324434       2.87895411       0.00000000
Si      -0.28903347       2.46607794       2.87235210       0.00000000
Si       2.50333317      -2.87326278       0.18876589       0.00000000
Si      -3.04733772       2.45949678       0.08457793       0.00000000
Si      -2.77368201      -2.82418101       0.04984517       0.00000000
Si       2.74637997       2.84980518       0.14926731       0.00000000
