10
Lattice="16.28999089631971 0.0 0.0 0.0 16.28999089631971 0.0 0.0 0.0 34.385447050020396" Properties=species:S:1:pos:R:3:initial_magmoms:R:1 pbc="T T T"
Si      -0.85457340      -1.71947466      -1.42637791       0.00000000
Si       1.71506007       0.88381395      -1.46495840       0.00000000
Si       1.13585283      -0.58010319       2.08620062       0.00000000
Si      -1.53940500       1.95489774      -0.20834154       0.00000000
Si      -2.54591523      -1.08641268       1.17691135       0.00000000
Si      -2.21179104      -0.34717248      -2.82799829       0.00000000
Si       1.85205897       1.78701300       2.67305738       0.00000000
Si       0.52018857       2.37804678      -2.84292158       0.00000000
Si      -1.83949938      -3.31879428       0.01055634       0.00000000
Si      -3.44678481       1.06432344      -1.37211765       0.00000000
