10
Lattice="16.28999089631971 0.0 0.0 0.0 16.28999089631971 0.0 0.0 0.0 34.385447050020396" Properties=species:S:1:pos:R:3:initial_magmoms:R:1 pbc="T T T"
Si      -2.38058802       0.03018537       0.05353817       0.00000000
Si       0.70442847       1.42195410       1.80458366       0.00000000
Si       0.62929899      -2.06780373       1.06233898       0.00000000
Si       0.90769509       0.31299606      -2.27277616       0.00000000
Si       2.77692928       2.22249357       1.01413056       0.00000000
Si      -0.19070703      -1.94931027       3.24536908       0.00000000
Si       0.91657314       0.02788848       3.75245155       0.00000000
Si      -3.24780246      -1.72574631      -1.24788296       0.00000000
Si      -0.09658341      -1.19420361      -3.86334468       0.00000000
Si      -3.51868887       1.93303656      -0.77460140       0.00000000
