10
Lattice="16.28999089631971 0.0 0.0 0.0 16.28999089631971 0.0 0.0 0.0 34.385447050020396" Properties=species:S:1:pos:R:3:initial_magmoms:R:1 pbc="T T T"
Si       1.35586557       1.34869797       1.37739925       0.00000000
Si      -1.35609363      -1.37510406       1.37114110       0.00000000
Si       1.67931981      -0.99137682      -1.35194369       0.00000000
Si      -1.38375405       1.35891180      -1.53621197       0.00000000
Si      -2.67706602       2.66462046       0.03459522       0.00000000
Si       2.71720458       2.66883957      -0.02882534       0.00000000
Si      -2.69871543      -2.73134430      -0.01227561       0.00000000
Si       0.00596214       2.69780319       2.73524693       0.00000000
Si      -2.70998811      -0.01428633       2.73452484       0.00000000
Si       2.72540464      -2.72039742      -0.00083213       0.00000000
