10
Lattice="16.28999089631971 0.0 0.0 0.0 16.28999089631971 0.0 0.0 0.0 34.385447050020396" Properties=species:S:1:pos:R:3:initial_magmoms:R:1 pbc="T T T"
Si      -2.16909495      -0.18375120      -0.90399391       0.00000000
Si       1.25672463      -0.57081789      -1.94618301       0.00000000
Si       0.32606064      -2.12924961       1.07568054       0.00000000
Si       0.80431875       1.93618053       1.20098118       0.00000000
Si       2.72390370      -2.13845346       0.88993025       0.00000000
Si      -0.67821786      -3.63644928      -0.51488797       0.00000000
Si      -3.73751244       0.75772935       0.53455646       0.00000000
Si      -2.73077415      -2.51843400      -1.08004750       0.00000000
Si       0.54051849      -2.93793408      -2.53303976       0.00000000
Si      -0.80350425       3.57008382       1.56763341       0.00000000
