10
Lattice="16.28999089631971 0.0 0.0 0.0 16.28999089631971 0.0 0.0 0.0 34.385447050020396" Properties=species:S:1:pos:R:3:initial_magmoms:R:1 pbc="T T T"
Si      -1.72276524      -1.25211456      -1.07203568       0.00000000
Si       1.29299336       1.12513401      -1.67295609       0.00000000
Si      -1.71862758       1.22601798       1.24062762       0.00000000
Si       0.84041154      -1.67729985       1.61484465       0.00000000
Si      -0.56022939       2.17002348      -2.76421325       0.00000000
Si      -0.72501903      -2.44017684      -2.80038676       0.00000000
Si       0.73417142      -3.69963819       0.42926816       0.00000000
Si      -0.49190913       2.77130367       2.56257687       0.00000000
Si       3.05993708       2.27504511      -0.45247835       0.00000000
Si       3.05731439      -0.95527818       2.12605338       0.00000000
