10
Lattice="16.28999089631971 0.0 0.0 0.0 16.28999089631971 0.0 0.0 0.0 34.385447050020396" Properties=species:S:1:pos:R:3:initial_magmoms:R:1 pbc="T T T"
Si       1.89004725      -1.08468594       0.84959610       0.00000000
Si      -0.16035876       1.65470562       1.66779827       0.00000000
Si       1.37885076       0.87485445      -1.73536571       0.00000000
Si      -1.99785447      -1.03623948      -0.79313516       0.00000000
Si       0.91852794      -2.55137238       2.36754251       0.00000000
Si      -3.12323283       0.70721406      -1.95863054       0.00000000
Si       2.88779346      -2.27274822      -0.87875498       0.00000000
Si       0.12305466       3.77721117       0.65108880       0.00000000
Si       0.16897617       2.46330864      -2.96629663       0.00000000
Si      -1.50170994      -2.66908392      -2.45749489       0.00000000
