10
Lattice="16.28999089631971 0.0 0.0 0.0 16.28999089631971 0.0 0.0 0.0 34.385447050020396" Properties=species:S:1:pos:R:3:initial_magmoms:R:1 pbc="T T T"
Si      -0.39242610      -2.13879555       0.89687612       0.00000000
Si       2.12668882       0.13914918       1.12065673       0.00000000
Si       0.81962809      -0.97344153      -2.06295605       0.00000000
Si      -1.66048272       1.81905543       0.30740607       0.00000000
Si       1.66879321      -3.23248823       0.36658346       0.00000000
Si       3.31400176       1.57157775      -0.24307086       0.00000000
Si       1.75845337       0.71729757      -3.36176388       0.00000000
Si      -0.98575092      -1.97899065      -3.16896457       0.00000000
Si      -2.87921907       1.12054023       2.32555785       0.00000000
Si      -0.61779825      -2.10427704       3.20500054       0.00000000
