10
Lattice="16.28999089631971 0.0 0.0 0.0 16.28999089631971 0.0 0.0 0.0 34.385447050020396" Properties=species:S:1:pos:R:3:initial_magmoms:R:1 pbc="T T T"
Si      -1.36133901      -1.32014160       1.40622459       0.00000000
Si       1.35789923       1.38904830       1.39793769       0.00000000
Si      -1.32268284       1.30342806      -1.60872060       0.00000000
Si       0.97396511      -1.93142385      -1.43988452       0.00000000
Si      -2.71720458      -2.66883957       0.02882534       0.00000000
Si       2.72185442      -2.70405855       0.01696579       0.00000000
Si      -2.69017947       2.74993119       0.01032596       0.00000000
Si       0.00371412      -2.68581375       2.76207791       0.00000000
Si      -2.71124244       0.02896362       2.76407227       0.00000000
Si       2.71848239       0.02858895       2.76090880       0.00000000
