10
Lattice="16.28999089631971 0.0 0.0 0.0 16.28999089631971 0.0 0.0 0.0 34.385447050020396" Properties=species:S:1:pos:R:3:initial_magmoms:R:1 pbc="T T T"
Si       0.16135245      -0.67103397      -2.20214842       0.00000000
Si      -1.44243389       1.80835290       0.40757093       0.00000000
Si       2.01499155       1.36321236       0.33288570       0.00000000
Si      -0.23284926      -2.13555384       1.21587009       0.00000000
Si       1.48599009      -1.10257236       2.72848675       0.00000000
Si      -0.63780237       2.28074661       2.58582145       0.00000000
Si      -0.12119760       3.43345959      -1.00697838       0.00000000
Si       1.35264015      -2.76296319      -1.92462332       0.00000000
Si       3.32439804      -0.06278166       1.65731070       0.00000000
Si      -0.02666673       0.33340743       3.81733692       0.00000000
