10
Lattice="16.28999089631971 0.0 0.0 0.0 16.28999089631971 0.0 0.0 0.0 34.385447050020396" Properties=species:S:1:pos:R:3:initial_magmoms:R:1 pbc="T T T"
Si       1.51265682      -1.43597979      -1.08885017       0.00000000
Si      -0.61113564       1.94733918      -1.23151547       0.00000000
Si      -1.82219777      -1.44150210       0.56409357       0.00000000
Si       1.49639940       0.68962086       1.81348949       0.00000000
Si       1.62815292       2.56396455      -1.64376283       0.00000000
Si       2.82779739       2.06431767       0.38429197       0.00000000
Si      -0.23695434       1.87527222       3.01863131       0.00000000
Si      -0.20618253      -2.46896127      -2.60146684       0.00000000
Si       2.26124748      -2.71647153       0.72539580       0.00000000
Si      -1.28076867      -3.36131118      -0.65040109       0.00000000
