10
Lattice="16.28999089631971 0.0 0.0 0.0 16.28999089631971 0.0 0.0 0.0 34.385447050020396" Properties=species:S:1:pos:R:3:initial_magmoms:R:1 pbc="T T T"
Si       0.10624012       2.02233834       1.18557649       0.00000000
Si       0.50734065       0.31244220      -2.31063456       0.00000000
Si       1.59568043      -1.40750487       1.08111344       0.00000000
Si      -2.15272091      -1.01493216       0.33701195       0.00000000
Si      -1.25017346       1.08392031       2.97630280       0.00000000
Si      -3.42845597       0.98083719       0.01664257       0.00000000
Si      -1.96773167      -1.65433095       2.62037884       0.00000000
Si       0.27331362      -2.28504717       2.92400251       0.00000000
Si       0.69463655      -1.91842443      -3.14798944       0.00000000
Si      -1.45919045       1.25946135      -3.22965492       0.00000000
