10
Lattice="16.28999089631971 0.0 0.0 0.0 16.28999089631971 0.0 0.0 0.0 34.385447050020396" Properties=species:S:1:pos:R:3:initial_magmoms:R:1 pbc="T T T"
Si       1.35557872       1.35861858       1.35698804       0.00000000
Si       1.35782674      -1.35713945      -1.35705681       0.00000000
Si      -1.35736344       1.35830907      -1.35650664       0.00000000
Si      -1.35827568      -1.35811685       1.35757259       0.00000000
Si      -0.00048044       2.71498914       2.71088139       0.00000000
Si       0.00079902      -2.71260945       2.71346030       0.00000000
Si      -2.71217016       0.00288333      -2.71569535       0.00000000
Si       0.00193932       2.71619460      -2.71167226       0.00000000
Si      -0.00152661      -2.71322363      -2.71517957       0.00000000
Si       2.71315637       0.00034209      -2.71600482       0.00000000
