10
Lattice="16.28999089631971 0.0 0.0 0.0 16.28999089631971 0.0 0.0 0.0 34.385447050020396" Properties=species:S:1:pos:R:3:initial_magmoms:R:1 pbc="T T T"
Si      -1.35587534      -1.34799750       1.39149386       0.00000000
Si       1.35347094       1.37836206       1.38358520       0.00000000
Si      -1.74788931       0.77263470      -1.45685031       0.00000000
Si       1.50068367      -1.36438524      -1.41057779       0.00000000
Si      -2.71365435      -2.68517844       0.01102742       0.00000000
Si       2.71624347      -2.70865233       0.03918224       0.00000000
Si      -2.72185442       2.70405855      -0.01696579       0.00000000
Si       2.70153360       2.73056238      -0.01061135       0.00000000
Si      -0.00542457      -2.69697240       2.74751910       0.00000000
Si       2.70995553       0.01441665       2.74463072       0.00000000
