10
Lattice="16.28999089631971 0.0 0.0 0.0 16.28999089631971 0.0 0.0 0.0 34.385447050020396" Properties=species:S:1:pos:R:3:initial_magmoms:R:1 pbc="T T T"
Si       1.74788931      -0.77263470       1.45685031       0.00000000
Si       0.58189835       0.54234297      -2.42516365       0.00000000
Si      -0.97396511       1.93142385       1.43988452       0.00000000
Si      -2.01184988      -1.72879254       0.11676617       0.00000000
Si       0.39201396      -2.12063220       2.84834417       0.00000000
Si      -2.33530412       0.61128225       2.84610911       0.00000000
Si       1.41472623       2.75566527      -2.17047050       0.00000000
Si      -0.96576505      -3.45781314       1.46787773       0.00000000
Si       3.24857298      -2.13701994       0.04627252       0.00000000
Si      -1.67347400       0.66670083      -3.47759962       0.00000000
