10
Lattice="16.28999089631971 0.0 0.0 0.0 16.28999089631971 0.0 0.0 0.0 34.385447050020396" Properties=species:S:1:pos:R:3:initial_magmoms:R:1 pbc="T T T"
Si       1.35532963       1.35748154      -1.35894801       0.00000000
Si      -1.35782674       1.35713945       1.35705681       0.00000000
Si       1.35715411      -1.35779248       1.35733190       0.00000000
Si      -1.35935335      -1.35608419      -1.35812276       0.00000000
Si       2.71370386      -0.00164692       2.71531711       0.00000000
Si       2.71492561      -2.71439034      -0.00130665       0.00000000
Si       2.71440433       2.71512272       0.00003439       0.00000000
Si      -0.00224802       2.71575803       2.71404485       0.00000000
Si      -2.71519018       2.71544852       0.00055017       0.00000000
Si      -2.71610242      -0.00097740       2.71462941       0.00000000
