10
Lattice="16.28999089631971 0.0 0.0 0.0 16.28999089631971 0.0 0.0 0.0 34.385447050020396" Properties=species:S:1:pos:R:3:initial_magmoms:R:1 pbc="T T T"
Si      -0.17200611       0.28619901       2.34673930       0.00000000
Si      -2.02518909      -0.77074506      -1.02386164       0.00000000
Si       0.42021684       2.32581194      -0.44677036       0.00000000
Si       2.00117763      -1.34149779       0.12371891       0.00000000
Si      -2.00179665      -1.08574479       2.59978195       0.00000000
Si       3.44616579       0.43095360      -0.44315989       0.00000000
Si       2.63091645       2.37451904       0.53665397       0.00000000
Si      -1.62836469      -0.33195762      -3.22171188       0.00000000
Si      -1.57472172      -3.05709543       1.26074312       0.00000000
Si      -3.69989231       0.71289831      -0.20022657       0.00000000
