10
Lattice="16.28999089631971 0.0 0.0 0.0 16.28999089631971 0.0 0.0 0.0 34.385447050020396" Properties=species:S:1:pos:R:3:initial_magmoms:R:1 pbc="T T T"
Si       0.14599098       1.19757564      -1.98534805       0.00000000
Si      -1.96969625      -1.02058479      -0.76896218       0.00000000
Si      -0.11680256       1.46424294       1.86740590       0.00000000
Si       1.63704726      -1.78196310      -0.00433257       0.00000000
Si      -2.50277021      -1.91712123       1.31854509       0.00000000
Si       0.57306591      -0.77377500      -3.32438688       0.00000000
Si      -1.07835565      -2.28923370      -2.52898227       0.00000000
Si       2.58334965      -1.40512653      -2.17855999       0.00000000
Si       1.36868580       3.20866803       1.28732309       0.00000000
Si       0.40399200      -3.80909070       0.45423201       0.00000000
