10
Lattice="16.28999089631971 0.0 0.0 0.0 16.28999089631971 0.0 0.0 0.0 34.385447050020396" Properties=species:S:1:pos:R:3:initial_magmoms:R:1 pbc="T T T"
Si       0.94613949      -2.14226532      -0.36108178       0.00000000
Si      -2.25754055      -0.50749866       0.59074231       0.00000000
Si      -0.28805933       1.13407722      -2.12395587       0.00000000
Si       1.40784696       0.98593596       1.73515940       0.00000000
Si      -2.47408352       1.92339288      -1.75582506       0.00000000
Si       3.56101029       0.48628908       0.65858484       0.00000000
Si      -3.36671036      -0.29712960      -1.47235128       0.00000000
Si      -0.82080423      -3.29217642      -1.58155952       0.00000000
Si      -2.85842978       1.58061870       1.89890299       0.00000000
Si       1.22688135      -2.98431171       1.99886154       0.00000000
