10
Lattice="10.86 0.0 0.0 0.0 10.86 0.0 0.0 0.0 10.86" Properties=species:S:1:pos:R:3:initial_magmoms:R:1 pbc="T T T"
Si       0.98167884      -1.44208854      -1.46885844       0.00000000
Si       1.54864686       0.93810852       1.72191816       0.00000000
Si      -1.73332116      -1.44208854       1.24614156       0.00000000
Si      -1.73332116       1.27291146      -1.46885844       0.00000000
Si       2.27804790      -2.71368594      -0.09552456       0.00000000
Si       2.33917884      -0.08458854      -2.82635844       0.00000000
Si       3.06850386      -1.04778366       1.74233496       0.00000000
Si       2.33799510       2.85989412       0.02655270       0.00000000
Si      -0.27732096       2.53931778       2.68453770       0.00000000
Si      -0.37582116       2.63041146      -2.82635844       0.00000000
