10
Lattice="10.86 0.0 0.0 0.0 10.86 0.0 0.0 0.0 10.86" Properties=species:S:1:pos:R:3:initial_magmoms:R:1 pbc="T T T"
Si      -1.30923816      -1.24971450       1.30233120       0.00000000
Si       1.40576184       1.46528550       1.30233120       0.00000000
Si      -1.30923816       1.46528550      -1.41266880       0.00000000
Si       1.77913950      -1.07663868      -1.54766946       0.00000000
Si       0.04826184      -2.60721450       2.65983120       0.00000000
Si      -2.66673816      -2.60721450      -0.05516880       0.00000000
Si      -2.66673816       0.10778550       2.65983120       0.00000000
Si       2.70848400      -2.66275254      -0.02725860       0.00000000
Si       0.14676204       2.73169182      -2.68927266       0.00000000
Si       2.76326184       0.10778550       2.65983120       0.00000000
