10
Lattice="16.28999089631971 0.0 0.0 0.0 16.28999089631971 0.0 0.0 0.0 34.28971787722196" Properties=species:S:1:pos:R:3:initial_magmoms:R:1 pbc="T T T"
Si       0.62413506      -0.97231752       1.98578725       0.00000000
Si       1.55005866      -0.92426202      -1.43502550       0.00000000
Si       0.11489337       2.31234921      -0.22329477       0.00000000
Si      -1.95591491      -1.20635595      -0.47985058       0.00000000
Si       0.27491004      -0.65117646      -3.34431234       0.00000000
Si       1.30062618      -3.12274413      -0.69800189       0.00000000
Si       0.80992251       2.84185566       1.92680890       0.00000000
Si      -0.93608041      -3.16741131      -1.31600582       0.00000000
Si      -3.07034639       0.31368024      -1.89649678       0.00000000
Si      -1.35222638      -0.93310749       3.26133118       0.00000000
