10
Lattice="16.28999089631971 0.0 0.0 0.0 16.28999089631971 0.0 0.0 0.0 34.28971787722196" Properties=species:S:1:pos:R:3:initial_magmoms:R:1 pbc="T T T"
Si      -1.35610992      -1.35760390       1.35739353       0.00000000
Si       1.35936792       1.35710898       1.35773643       0.00000000
Si      -1.35739683       1.35869725      -1.35814790       0.00000000
Si       1.35935163      -1.35880936      -1.35989668       0.00000000
Si      -2.71142163       2.71452861       0.00054864       0.00000000
Si      -2.71306692      -0.00058810       2.71495851       0.00000000
Si       0.00346977       2.71210140      -2.71638153       0.00000000
Si      -2.71404432      -2.71452832       0.00089153       0.00000000
Si       2.70505224       0.01205930      -2.72420645       0.00000000
Si       0.00187335       2.71508247       2.71495851       0.00000000
