10
Lattice="16.28999089631971 0.0 0.0 0.0 16.28999089631971 0.0 0.0 0.0 34.28971787722196" Properties=species:S:1:pos:R:3:initial_magmoms:R:1 pbc="T T T"
Si       1.35610992       1.35774544      -1.35773643       0.00000000
Si       1.35769005      -1.35704470       1.35766785       0.00000000
Si      -1.35749457       1.35797350       1.35722208       0.00000000
Si      -1.35936792      -1.35710898      -1.35773643       0.00000000
Si       0.00021177       2.71255216       2.71386124       0.00000000
Si       2.71358820      -0.00007982       2.71386124       0.00000000
Si       0.00045612       2.71276393      -2.71629581       0.00000000
Si       2.71503801      -2.71454998       0.00051435       0.00000000
Si      -2.71498914       2.71493050       0.00013716       0.00000000
Si       2.71541268       2.71466986      -0.00030861       0.00000000
