10
Lattice="16.28999089631971 0.0 0.0 0.0 16.28999089631971 0.0 0.0 0.0 34.28971787722196" Properties=species:S:1:pos:R:3:initial_magmoms:R:1 pbc="T T T"
Si       1.34384355       1.33697894      -1.37831027       0.00000000
Si       1.40669037      -1.37479828       1.31182247       0.00000000
Si      -1.36909305      -1.38472635      -1.37107514       0.00000000
Si      -1.29624417       1.41919457       1.50562806       0.00000000
Si      -0.42557625      -2.36743940       2.35735084       0.00000000
Si      -2.04346647      -0.56080606       2.66036925       0.00000000
Si       2.68775226       2.68569320       0.01807069       0.00000000
Si      -2.73448827       2.67964961       0.00617215       0.00000000
Si      -0.01096317       2.68763171      -2.73491514       0.00000000
Si       2.70241326      -0.02500026      -2.73491514       0.00000000
