10
Lattice="16.28999089631971 0.0 0.0 0.0 16.28999089631971 0.0 0.0 0.0 34.28971787722196" Properties=species:S:1:pos:R:3:initial_magmoms:R:1 pbc="T T T"
Si       0.39493476       1.09882240       2.00841848       0.00000000
Si       2.06307963      -1.14276698      -0.10598958       0.00000000
Si      -2.05312644      -1.22253911       0.28895961       0.00000000
Si      -1.41292944       0.49712193      -2.05210360       0.00000000
Si       0.20496078      -1.30951142      -2.35512201       0.00000000
Si      -0.97868691      -3.31635797       1.01267880       0.00000000
Si      -1.69559352       1.92138921       2.58640629       0.00000000
Si       2.39637303       2.31076908       1.57811657       0.00000000
Si      -3.17207025       0.21145397       1.88648417       0.00000000
Si       3.01281921      -1.01044331       2.08519320       0.00000000
