10
Lattice="16.28999089631971 0.0 0.0 0.0 16.28999089631971 0.0 0.0 0.0 34.28971787722196" Properties=species:S:1:pos:R:3:initial_magmoms:R:1 pbc="T T T"
Si      -0.74722230      -1.98000063       1.15474118       0.00000000
Si      -1.43824410       1.26045504      -1.49945591       0.00000000
Si       1.29624417      -1.41919457      -1.50562806       0.00000000
Si       0.79395831       1.82244375       1.44082046       0.00000000
Si       2.64279186       2.74835106       0.02746608       0.00000000
Si      -1.05966450       3.49511724       1.15786155       0.00000000
Si       2.70293454      -2.79399285      -0.19380559       0.00000000
Si      -0.07390773       2.63019969      -2.87831482       0.00000000
Si      -2.97898488       2.51999784       0.07564316       0.00000000
Si       2.64008772      -0.08221563      -2.88393833       0.00000000
