10
Lattice="16.28999089631971 0.0 0.0 0.0 16.28999089631971 0.0 0.0 0.0 34.28971787722196" Properties=species:S:1:pos:R:3:initial_magmoms:R:1 pbc="T T T"
Si       2.28718116       0.21302433      -0.60980868       0.00000000
Si      -1.19079900       2.08930653       0.19322267       0.00000000
Si      -0.36106785      -1.04163147       2.17311208       0.00000000
Si      -1.29137346      -0.89485857      -1.90640651       0.00000000
Si      -3.22908525      -0.77659317      -0.42536419       0.00000000
Si       0.45589194       0.80972703       3.39492400       0.00000000
Si       0.63910557      -2.45608565      -2.57001579       0.00000000
Si       2.00518497       1.14530103      -2.81007824       0.00000000
Si      -0.25016553       2.85285141       2.24563488       0.00000000
Si      -3.32625510       1.29787317       0.74141269       0.00000000
