10
Lattice="16.28999089631971 0.0 0.0 0.0 16.28999089631971 0.0 0.0 0.0 34.28971787722196" Properties=species:S:1:pos:R:3:initial_magmoms:R:1 pbc="T T T"
Si       0.38167470      -1.45178991       1.85912096       0.00000000
Si       0.91196307       2.10329801       0.74851067       0.00000000
Si       1.54974915      -0.31530177      -1.85702929       0.00000000
Si      -2.14399206      -0.27671076      -1.24214572       0.00000000
Si       2.84244210       0.54207093       0.08490139       0.00000000
Si      -0.51953697      -1.50802299      -2.67312503       0.00000000
Si      -1.02574872       2.22156341       2.22955299       0.00000000
Si      -2.95932285       1.42195247       1.22294347       0.00000000
Si       0.11403000      -3.49778133       0.74593894       0.00000000
Si       0.41653530       3.48361487      -1.29550056       0.00000000
