10
Lattice="16.28999089631971 0.0 0.0 0.0 16.28999089631971 0.0 0.0 0.0 34.28971787722196" Properties=species:S:1:pos:R:3:initial_magmoms:R:1 pbc="T T T"
Si      -2.09548044      -0.29211228       1.02327433       0.00000000
Si       0.81695979       1.85135850       1.22181191       0.00000000
Si       0.96381414      -2.18959135       0.11853962       0.00000000
Si       0.36106785       1.04163147      -2.17311208       0.00000000
Si      -0.00361638       1.19382894       3.31315158       0.00000000
Si      -3.40480548      -1.11258094      -0.73520625       0.00000000
Si       3.11922549       1.60836057       1.02896643       0.00000000
Si      -2.85430122       2.15840871       0.99076766       0.00000000
Si      -0.82973115       3.13093800      -1.97988942       0.00000000
Si      -2.86801740       0.26503830      -2.59847627       0.00000000
