10
Lattice="16.28999089631971 0.0 0.0 0.0 16.28999089631971 0.0 0.0 0.0 34.28971787722196" Properties=species:S:1:pos:R:3:initial_magmoms:R:1 pbc="T T T"
Si      -1.27852065       1.39885488       1.44930717       0.00000000
Si      -0.96047469      -1.78308711      -1.26656143       0.00000000
Si       1.46059398      -1.29485952       1.42917909       0.00000000
Si       0.96972741       1.90105929      -1.28158033       0.00000000
Si       0.91497672      -3.32324145      -1.14811606       0.00000000
Si      -2.65465098      -2.65781124       0.09947110       0.00000000
Si      -2.59025661       2.73860964       0.04081507       0.00000000
Si      -2.62837521       0.05980059       2.81376096       0.00000000
Si       0.08550621      -2.65831623       2.81201218       0.00000000
Si      -0.79032564       3.61638000      -1.18374756       0.00000000
