10
Lattice="16.28999089631971 0.0 0.0 0.0 16.28999089631971 0.0 0.0 0.0 34.28971787722196" Properties=species:S:1:pos:R:3:initial_magmoms:R:1 pbc="T T T"
Si      -1.34985456      -1.33905429       1.36445379       0.00000000
Si      -1.31173596       1.33975476      -1.40849210       0.00000000
Si       1.36594908       1.37562534       1.36273930       0.00000000
Si       1.27852065      -1.39885488      -1.44930717       0.00000000
Si       0.48819501       2.21752512      -2.63305473       0.00000000
Si       2.24824806       0.50220441      -2.73088750       0.00000000
Si      -2.72446992      -2.68187157      -0.00240028       0.00000000
Si       0.00558747      -2.69762400       2.72167587       0.00000000
Si      -2.70959715       0.01567098       2.72057860       0.00000000
Si       2.73911463      -2.69371440      -0.02012808       0.00000000
