10
Lattice="16.28999089631971 0.0 0.0 0.0 16.28999089631971 0.0 0.0 0.0 34.28971787722196" Properties=species:S:1:pos:R:3:initial_magmoms:R:1 pbc="T T T"
Si      -1.34679204      -1.34467434      -1.38036765       0.00000000
Si       1.36433637       1.36974465      -1.37885891       0.00000000
Si       1.43824410      -1.26045504       1.49945591       0.00000000
Si      -1.54074078       1.25954280       1.57509907       0.00000000
Si       0.37857960       2.23466220       2.65731746       0.00000000
Si       2.23220241       0.56198871       2.94027637       0.00000000
Si       2.73448827      -2.67964961      -0.00617215       0.00000000
Si      -2.69972541      -2.72062059       0.00586355       0.00000000
Si      -2.72148070       2.72393235       0.00490343       0.00000000
Si       0.00659745      -2.70590421      -2.74084726       0.00000000
