10
Lattice="16.28999089631971 0.0 0.0 0.0 16.28999089631971 0.0 0.0 0.0 34.28971787722196" Properties=species:S:1:pos:R:3:initial_magmoms:R:1 pbc="T T T"
Si      -0.19365552       1.19464344       1.96895099       0.00000000
Si       2.03732514      -1.10705211       0.54894440       0.00000000
Si      -1.98307944      -1.29311649      -0.59009208       0.00000000
Si       0.63421857      -2.46615939       1.89423365       0.00000000
Si       1.10939787       2.32720569      -2.11773416       0.00000000
Si       1.66591314       0.10070478      -3.09540314       0.00000000
Si       3.09366648      -1.07571015      -1.59152385       0.00000000
Si      -1.49573151       3.09413889       1.48796885       0.00000000
Si      -2.74004316       2.54881485      -0.59815017       0.00000000
Si       1.98216720       1.61257968       2.89429383       0.00000000
