10
Lattice="16.28999089631971 0.0 0.0 0.0 16.28999089631971 0.0 0.0 0.0 34.28971787722196" Properties=species:S:1:pos:R:3:initial_magmoms:R:1 pbc="T T T"
Si       0.33800284       2.07877830      -1.07292587       0.00000000
Si       2.25850261      -0.76055892       0.10266347       0.00000000
Si      -0.32066376       0.41643267       2.37171824       0.00000000
Si      -1.54567569      -1.45215154      -1.33023606       0.00000000
Si       0.51022724       3.51477438       0.81043793       0.00000000
Si       1.35072607       2.10516810       2.66239234       0.00000000
Si       2.21531782      -2.46612259       1.71753864       0.00000000
Si      -0.39457312      -3.61243360      -1.45631942       0.00000000
Si       3.73497935       0.94937631       0.80258559       0.00000000
Si      -3.56377863      -1.70977789      -0.02036810       0.00000000
