10
Lattice="16.28999089631971 0.0 0.0 0.0 16.28999089631971 0.0 0.0 0.0 34.28971787722196" Properties=species:S:1:pos:R:3:initial_magmoms:R:1 pbc="T T T"
Si       0.40904190       0.12469995      -2.28421083       0.00000000
Si      -0.77421483      -2.14675226       0.68288011       0.00000000
Si       2.04151167       0.93835287       0.80299706       0.00000000
Si      -1.97521137       1.28049174      -0.42440408       0.00000000
Si      -1.06743483      -1.58523529      -2.98413295       0.00000000
Si      -1.56335130       2.99257074       1.13207567       0.00000000
Si       0.72728334       2.43164088      -2.58455464       0.00000000
Si      -1.36529748       0.05103657       3.37867066       0.00000000
Si       2.39634045       2.62150083      -0.92702304       0.00000000
Si      -1.11061962      -3.29079896      -1.36925778       0.00000000
