10
Lattice="16.28999089631971 0.0 0.0 0.0 16.28999089631971 0.0 0.0 0.0 34.28971787722196" Properties=species:S:1:pos:R:3:initial_magmoms:R:1 pbc="T T T"
Si      -1.21578786      -1.26988695      -1.64758758       0.00000000
Si       1.31183370       1.41833772      -1.56186323       0.00000000
Si      -1.32888933       0.10031382       2.15908758       0.00000000
Si       2.52055170      -0.12129534       0.63950360       0.00000000
Si       2.66129730       2.50945821       0.04447379       0.00000000
Si      -2.15218593      -3.08187252      -0.41720323       0.00000000
Si       3.07706697      -2.34779625      -0.33816539       0.00000000
Si      -2.42421264      -2.13359904       2.18048438       0.00000000
Si       1.41115383      -2.44850103       2.75723776       0.00000000
Si      -2.53035828       0.12253338      -3.07818969       0.00000000
