10
Lattice="16.28999089631971 0.0 0.0 0.0 16.28999089631971 0.0 0.0 0.0 34.28971787722196" Properties=species:S:1:pos:R:3:initial_magmoms:R:1 pbc="T T T"
Si       1.30207599      -1.89949545       0.48098214       0.00000000
Si       1.62614925       1.56372597      -0.84997400       0.00000000
Si      -1.11659805       0.25246242       2.20390427       0.00000000
Si      -1.24431165      -0.54532404      -2.08611902       0.00000000
Si      -2.70658350       1.43112537      -2.13024991       0.00000000
Si       1.49573151      -3.09413889      -1.48796885       0.00000000
Si       2.93149953       2.13195375       1.00174038       0.00000000
Si      -2.94363558       1.66879647       1.69562750       0.00000000
Si      -1.32092352       3.27388275      -1.60074779       0.00000000
Si       0.30718053      -3.15429786       2.24134866       0.00000000
