10
Lattice="16.28999089631971 0.0 0.0 0.0 16.28999089631971 0.0 0.0 0.0 34.28971787722196" Properties=species:S:1:pos:R:3:initial_magmoms:R:1 pbc="T T T"
Si      -1.80644697      -0.68501079      -1.34710661       0.00000000
Si      -0.55659672       1.02877866       2.05981879       0.00000000
Si       1.04387949      -1.97022663       0.83180044       0.00000000
Si       1.54388475       1.54023579      -1.06589648       0.00000000
Si       1.57705119       0.77814072       3.00943877       0.00000000
Si       2.78990685      -0.90559368       1.90184598       0.00000000
Si      -3.25707147       1.03333986      -0.79439034       0.00000000
Si      -2.27836827      -0.21390399       2.92779491       0.00000000
Si       1.77839559       3.35367117       0.43256503       0.00000000
Si      -2.91170718      -2.48355711      -0.09601126       0.00000000
