10
Lattice="16.28999089631971 0.0 0.0 0.0 16.28999089631971 0.0 0.0 0.0 34.28971787722196" Properties=species:S:1:pos:R:3:initial_magmoms:R:1 pbc="T T T"
Si       2.05312644       1.22253911      -0.28895961       0.00000000
Si      -1.11894381       1.43399308       1.59752456       0.00000000
Si       1.07443953      -2.09381886       0.72371919       0.00000000
Si       0.64019700       1.71966104      -2.34106322       0.00000000
Si      -2.41764777      -1.11983976      -2.02693494       0.00000000
Si      -1.16212860      -0.27157059       3.21239972       0.00000000
Si       2.25808722      -0.08697231      -2.64408162       0.00000000
Si       0.57259350      -1.83747942       3.14008267       0.00000000
Si      -0.71052093      -2.96285778      -2.10707005       0.00000000
Si       2.44806120       2.32136151       1.71945886       0.00000000
