10
Lattice="16.28999089631971 0.0 0.0 0.0 16.28999089631971 0.0 0.0 0.0 34.28971787722196" Properties=species:S:1:pos:R:3:initial_magmoms:R:1 pbc="T T T"
Si      -2.06518104      -1.04749587       0.06323028       0.00000000
Si       0.00794952       2.10919662      -1.12062290       0.00000000
Si       0.64151649       0.11943828       2.29844107       0.00000000
Si       1.42079751      -1.50790014      -1.23254460       0.00000000
Si       2.72085354      -0.92564667       2.02720925       0.00000000
Si       2.82877479       0.03233565      -2.34572662       0.00000000
Si       1.17432981       1.52399466      -3.13384194       0.00000000
Si      -1.61650557       3.34050885       0.31035641       0.00000000
Si       2.48634270      -2.73908205       0.52874775       0.00000000
Si      -3.34032966      -0.77441031      -1.84605657       0.00000000
