10
Lattice="16.28999089631971 0.0 0.0 0.0 16.28999089631971 0.0 0.0 0.0 34.28971787722196" Properties=species:S:1:pos:R:3:initial_magmoms:R:1 pbc="T T T"
Si      -1.35589815      -1.35696488      -1.35619339       0.00000000
Si       1.35874890       1.35769494      -1.35629626       0.00000000
Si      -1.35856971       1.36197921       1.35660487       0.00000000
Si       1.36236528      -1.35666149       1.36092537       0.00000000
Si      -2.71337643       2.71263198       0.00000000       0.00000000
Si      -2.71358820       0.00007982      -2.71386124       0.00000000
Si       0.00144981      -2.71447016      -2.71334689       0.00000000
Si       0.00182448       2.71474968      -2.71416985       0.00000000
Si      -2.71407690      -2.71569191       0.00058293       0.00000000
Si       2.71590138       0.00005376      -2.71410127       0.00000000
