10
Lattice="16.28999089631971 0.0 0.0 0.0 16.28999089631971 0.0 0.0 0.0 34.28971787722196" Properties=species:S:1:pos:R:3:initial_magmoms:R:1 pbc="T T T"
Si      -0.52103565      -1.58161239      -1.60208509       0.00000000
Si       2.23821342       0.76584177      -0.28244456       0.00000000
Si      -1.12938244       2.06606070      -0.55206477       0.00000000
Si       0.58497390      -1.22984613       2.00824741       0.00000000
Si       2.99703420      -1.68467922      -0.24993789       0.00000000
Si      -2.43683869       1.99329327       1.61586957       0.00000000
Si       2.12732739       0.94693770      -2.70491162       0.00000000
Si       0.66295413       3.54027312       0.11168167       0.00000000
Si       1.68770916      -2.50514788      -2.00841848       0.00000000
Si       1.51927056       0.46669221       3.28752652       0.00000000
