10
Lattice="16.28999089631971 0.0 0.0 0.0 16.28999089631971 0.0 0.0 0.0 34.28971787722196" Properties=species:S:1:pos:R:3:initial_magmoms:R:1 pbc="T T T"
Si       1.52922375       1.45513031      -1.12559491       0.00000000
Si       1.01716389      -1.86433904       1.25476435       0.00000000
Si      -1.29269295      -0.85737269      -1.94193068       0.00000000
Si      -1.93047903       1.56122708       0.66360928       0.00000000
Si      -2.84244210      -0.54207093      -0.08490139       0.00000000
Si       0.27134253      -2.55770660      -2.40429349       0.00000000
Si      -0.63910557       2.45608565       2.57001579       0.00000000
Si      -2.46076740      -1.99386083       1.77421957       0.00000000
Si       1.64807559       2.66910998       1.96020711       0.00000000
Si       0.96422139      -3.60715727      -0.45680788       0.00000000
