10
Lattice="16.28999089631971 0.0 0.0 0.0 16.28999089631971 0.0 0.0 0.0 34.28971787722196" Properties=species:S:1:pos:R:3:initial_magmoms:R:1 pbc="T T T"
Si      -0.34141397      -0.93073634      -2.06633384       0.00000000
Si       1.27047013       1.83803328      -0.60517957       0.00000000
Si       1.02199876      -0.74038769       1.94916581       0.00000000
Si      -2.17876536       0.05412190       0.96131278       0.00000000
Si      -0.93844476      -0.08573704       2.99767743       0.00000000
Si      -1.31086674       0.90394350      -3.11638846       0.00000000
Si       0.37396790       2.47596597      -2.71413556       0.00000000
Si       3.47921494       0.91449779      -1.01151295       0.00000000
Si      -2.96878149      -2.21632685       0.51712352       0.00000000
Si       1.70894806      -0.82804418      -3.23177343       0.00000000
