10
Lattice="16.28999089631971 0.0 0.0 0.0 16.28999089631971 0.0 0.0 0.0 34.28971787722196" Properties=species:S:1:pos:R:3:initial_magmoms:R:1 pbc="T T T"
Si       1.35806472       1.35597960       1.35852509       0.00000000
Si      -1.36073628       1.35550719      -1.35650200       0.00000000
Si      -1.35679410      -1.35949824       1.35818219       0.00000000
Si       1.35734796      -1.36010097      -1.36044532       0.00000000
Si      -2.71401174       2.71366965       0.00072008       0.00000000
Si       2.71531494       2.71278999       0.00068579       0.00000000
Si       0.00048870       2.71303434       2.71550715       0.00000000
Si      -2.71505430      -0.00177561       2.71561001       0.00000000
Si       2.71541268      -0.00135207       2.71585004       0.00000000
Si       2.71474479      -2.71756296       0.00054864       0.00000000
