10
Lattice="16.28999089631971 0.0 0.0 0.0 16.28999089631971 0.0 0.0 0.0 34.28971787722196" Properties=species:S:1:pos:R:3:initial_magmoms:R:1 pbc="T T T"
Si      -1.42775334       1.17641493      -1.50387929       0.00000000
Si      -1.05634134      -0.03134196       2.14046826       0.00000000
Si       0.85393809      -1.78742025      -1.38643694       0.00000000
Si       1.89912078       0.94255569       1.78478081       0.00000000
Si       0.86371209       2.75009409       0.61988987       0.00000000
Si       1.47667221      -2.08717254       2.06667674       0.00000000
Si       2.32275852      -0.42691203      -2.74780808       0.00000000
Si      -3.09366648       1.07571015       1.59152385       0.00000000
Si       0.40553955       1.21650462       3.48095695       0.00000000
Si      -0.08671167       2.41740342      -2.91870813       0.00000000
