10
Lattice="16.28999089631971 0.0 0.0 0.0 16.28999089631971 0.0 0.0 0.0 34.28971787722196" Properties=species:S:1:pos:R:3:initial_magmoms:R:1 pbc="T T T"
Si       1.62243513       1.71984933       0.00188594       0.00000000
Si      -0.67271184      -0.98670159       2.05169213       0.00000000
Si      -1.77859107       0.53999721      -1.47685897       0.00000000
Si       1.22763069      -1.70548155      -1.26484553       0.00000000
Si       1.39212711       2.21273586      -2.31188265       0.00000000
Si      -2.13630318      -1.58726502      -2.38804016       0.00000000
Si       3.58829604       0.42754734       0.14854314       0.00000000
Si       1.39114971      -1.93150530       2.82406845       0.00000000
Si      -0.78369561       1.79479962      -3.23722549       0.00000000
Si       0.04417848      -1.86600321      -3.31194283       0.00000000
