10
Lattice="16.28999089631971 0.0 0.0 0.0 16.28999089631971 0.0 0.0 0.0 34.28971787722196" Properties=species:S:1:pos:R:3:initial_magmoms:R:1 pbc="T T T"
Si      -1.74602736      -1.06463295      -1.07004553       0.00000000
Si       1.73789865       1.05849162      -1.11054171       0.00000000
Si       0.75399894      -1.01998206       1.94741704       0.00000000
Si      -1.21285566       1.68373440       1.10759280       0.00000000
Si      -2.19234078      -2.40039666       0.90415179       0.00000000
Si      -2.78990685       0.90559368      -1.90184598       0.00000000
Si      -1.25170731      -1.63685178       2.95656400       0.00000000
Si      -0.03618009       3.59033229       0.53687441       0.00000000
Si       2.18641122       2.89025325       0.35194986       0.00000000
Si       3.46584411      -0.50995845      -1.15539269       0.00000000
