10
Lattice="16.28999089631971 0.0 0.0 0.0 16.28999089631971 0.0 0.0 0.0 34.28971787722196" Properties=species:S:1:pos:R:3:initial_magmoms:R:1 pbc="T T T"
Si      -2.22259131       0.70007904       0.18492455       0.00000000
Si       1.29068928       1.39114971      -1.36898346       0.00000000
Si      -0.44851257      -1.83176163      -1.46249157       0.00000000
Si       0.57458088      -0.36523809       2.29082875       0.00000000
Si       3.09769011      -0.04919580      -1.59066661       0.00000000
Si      -2.18641122      -2.89025325      -0.35194986       0.00000000
Si       0.09879885       1.28762676      -3.43614026       0.00000000
Si      -3.39926688      -1.20651885       0.75564294       0.00000000
Si      -0.54385794       1.53608184       3.43569449       0.00000000
Si      -1.09358028      -0.88469361      -3.56743566       0.00000000
