10
Lattice="16.28999089631971 0.0 0.0 0.0 16.28999089631971 0.0 0.0 0.0 34.28971787722196" Properties=species:S:1:pos:R:3:initial_magmoms:R:1 pbc="T T T"
Si       1.46491083      -1.40209659       1.10539825       0.00000000
Si      -2.34300699       0.13672197       0.22394627       0.00000000
Si       1.18592829       1.88848341      -0.78283470       0.00000000
Si      -0.82106487      -1.65651381      -1.47819627       0.00000000
Si       3.30131511      -1.12964634      -0.52741045       0.00000000
Si      -2.82677112      -2.27338353      -0.46904931       0.00000000
Si       3.47454297       1.18881162      -0.59962463       0.00000000
Si      -2.78791947       1.04720265      -2.31802051       0.00000000
Si       0.06748947       3.78980334       0.36203104       0.00000000
Si      -1.57506381      -0.63653175      -3.42561331       0.00000000
