10
Lattice="16.28999089631971 0.0 0.0 0.0 16.28999089631971 0.0 0.0 0.0 34.28971787722196" Properties=species:S:1:pos:R:3:initial_magmoms:R:1 pbc="T T T"
Si      -1.30551318       1.39337512       1.32204081       0.00000000
Si      -1.36386396      -1.32587568      -1.36432006       0.00000000
Si       1.35257499       1.38651164      -1.36377142       0.00000000
Si       1.24398585      -1.50949656       1.53168826       0.00000000
Si       0.31265397       1.64128659       3.02181737       0.00000000
Si       2.20698549       0.07323984       3.01434220       0.00000000
Si       2.68553682      -2.68011225      -0.00192023       0.00000000
Si      -0.00850338      -2.68771968      -2.72401100       0.00000000
Si      -2.74395276      -2.68092675       0.01693913       0.00000000
Si       2.70511740       0.02766042      -2.72445677       0.00000000
