10
Lattice="16.28999089631971 0.0 0.0 0.0 16.28999089631971 0.0 0.0 0.0 34.28971787722196" Properties=species:S:1:pos:R:3:initial_magmoms:R:1 pbc="T T T"
Si       0.81238230      -1.59042528       1.47130404       0.00000000
Si       0.43683264       1.84905414       1.33404222       0.00000000
Si       0.74899791      -0.24843879      -2.18466773       0.00000000
Si      -2.32525089       0.37491795       0.27095750       0.00000000
Si       0.13660794       0.19534968       3.13356762       0.00000000
Si      -2.75201631      -1.11589758      -1.49043771       0.00000000
Si       1.01286333       2.01413537      -2.76433573       0.00000000
Si      -1.27172772      -0.71428392      -3.33594565       0.00000000
Si       3.14812395      -1.67889627       0.94584811       0.00000000
Si       2.73520503       2.54432600       0.92397125       0.00000000
