10
Lattice="16.28999089631971 0.0 0.0 0.0 16.28999089631971 0.0 0.0 0.0 34.28971787722196" Properties=species:S:1:pos:R:3:initial_magmoms:R:1 pbc="T T T"
Si      -1.31926194       1.69306694       1.04652277       0.00000000
Si      -1.34495127      -1.30599441      -1.53727749       0.00000000
Si       0.73629171      -1.29260403       2.02858084       0.00000000
Si       1.48978566       1.36088126      -1.55761131       0.00000000
Si      -2.45456091       0.37969709       2.65505434       0.00000000
Si       2.52145321       2.88995840      -0.03233522       0.00000000
Si      -3.02772456      -2.44947096      -0.13335279       0.00000000
Si      -1.28181123      -1.55023038       3.33844880       0.00000000
Si       0.18178011      -2.49373089      -3.12163479       0.00000000
Si      -2.53501722       0.21359448      -3.11546264       0.00000000
