10
Lattice="16.28999089631971 0.0 0.0 0.0 16.28999089631971 0.0 0.0 0.0 34.28971787722196" Properties=species:S:1:pos:R:3:initial_magmoms:R:1 pbc="T T T"
Si      -0.37926378       1.83608610       1.40992541       0.00000000
Si       1.46880414      -1.36718669       1.24811214       0.00000000
Si       0.65181177       0.83026331      -2.16148786       0.00000000
Si      -1.87315452      -0.75188081      -1.32927595       0.00000000
Si      -1.64173878       1.09075832      -2.82845754       0.00000000
Si      -2.59030548       2.25302865       0.76579270       0.00000000
Si      -0.75008934      -2.25508943      -2.71331260       0.00000000
Si       3.26340828       0.14574920       1.63675202       0.00000000
Si       2.11494699      -3.17094581      -0.14425692       0.00000000
Si       1.10931642      -1.05953375      -3.49618159       0.00000000
