10
Lattice="16.28999089631971 0.0 0.0 0.0 16.28999089631971 0.0 0.0 0.0 34.28971787722196" Properties=species:S:1:pos:R:3:initial_magmoms:R:1 pbc="T T T"
Si      -1.27089693       1.42894251      -1.28678410       0.00000000
Si       1.32519150       1.36373364       1.36961782       0.00000000
Si      -1.38815235      -1.35081567       1.36426862       0.00000000
Si       1.42216587      -1.24400214      -1.59311490       0.00000000
Si      -2.05602606      -0.49210461      -2.81707133       0.00000000
Si      -0.34090083      -2.30125572      -2.74166820       0.00000000
Si       2.68381008      -2.69151525      -0.01466572       0.00000000
Si       2.68011225       2.72419299       0.01895537       0.00000000
Si       2.68574833       0.01018125       2.72605124       0.00000000
Si      -0.03075552      -2.70827766       2.72526258       0.00000000
