10
Lattice="16.28999089631971 0.0 0.0 0.0 16.28999089631971 0.0 0.0 0.0 34.28971787722196" Properties=species:S:1:pos:R:3:initial_magmoms:R:1 pbc="T T T"
Si      -1.35606105       1.35368271       1.35941662       0.00000000
Si      -1.35757602      -1.35726651      -1.35670774       0.00000000
Si       1.35721902       1.35733167      -1.35701634       0.00000000
Si       1.35810374      -1.35759231       1.36095966       0.00000000
Si       2.71271898       2.71533123       0.00041148       0.00000000
Si      -0.00006516       2.71490769      -2.71386124       0.00000000
Si       2.71478293      -0.00013032      -2.71410127       0.00000000
Si      -2.71492398       0.00006516      -2.71403269       0.00000000
Si       0.00008145      -2.71467963      -2.71451274       0.00000000
Si       2.71406943      -2.71590138       0.00034290       0.00000000
