10
Lattice="16.28999089631971 0.0 0.0 0.0 16.28999089631971 0.0 0.0 0.0 34.28971787722196" Properties=species:S:1:pos:R:3:initial_magmoms:R:1 pbc="T T T"
Si      -1.33419987       1.38401469       1.35148884       0.00000000
Si       1.38442194      -1.31706279       1.36936408       0.00000000
Si      -1.44951678      -1.24263378      -1.42229170       0.00000000
Si       0.83176740       1.80963981      -1.31718333       0.00000000
Si       1.10874627       0.32705433      -3.12875475       0.00000000
Si       0.39267045      -2.02815387      -2.66327157       0.00000000
Si      -2.56658724      -2.61231327       0.06362461       0.00000000
Si       2.68393455      -2.63801889      -0.03517441       0.00000000
Si      -2.61995328       2.71678104      -0.15794196       0.00000000
Si       0.02950119      -2.67752214       2.72002653       0.00000000
