10
Lattice="16.28999089631971 0.0 0.0 0.0 16.28999089631971 0.0 0.0 0.0 34.28971787722196" Properties=species:S:1:pos:R:3:initial_magmoms:R:1 pbc="T T T"
Si       0.27697887      -1.48258548      -1.81157142       0.00000000
Si      -0.83176740      -1.80963981       1.31718333       0.00000000
Si      -1.61200953       1.81553679      -0.22964870       0.00000000
Si       1.86899961       1.02348441       1.20943812       0.00000000
Si      -2.16596727      -0.42562512       2.66867217       0.00000000
Si       1.97673353      -0.28466775      -2.91875274       0.00000000
Si       0.55345275       2.31238179       2.67379162       0.00000000
Si      -3.45172068       0.90714123       1.15924137       0.00000000
Si      -2.28128418      -3.05227359      -0.10510837       0.00000000
Si      -0.91339659       3.54967245       1.26802213       0.00000000
