10
Lattice="16.28999089631971 0.0 0.0 0.0 16.28999089631971 0.0 0.0 0.0 34.28971787722196" Properties=species:S:1:pos:R:3:initial_magmoms:R:1 pbc="T T T"
Si       1.25543772      -1.33876107       1.44023754       0.00000000
Si       1.36289087       1.33757190      -1.35015840       0.00000000
Si      -1.39489641       1.33955928       1.34360906       0.00000000
Si      -1.35048987      -1.38256488      -1.34655797       0.00000000
Si      -0.57651939      -2.13540723       2.75188856       0.00000000
Si      -2.26393533      -0.37080927       2.72284515       0.00000000
Si       2.72018306       2.66414805       0.01124703       0.00000000
Si       0.00526167       2.69127090      -2.70690042       0.00000000
Si      -2.71062342      -0.02186118      -2.70402008       0.00000000
Si       2.71829016      -0.02091636      -2.70556312       0.00000000
