10
Lattice="16.28999089631971 0.0 0.0 0.0 16.28999089631971 0.0 0.0 0.0 34.28971787722196" Properties=species:S:1:pos:R:3:initial_magmoms:R:1 pbc="T T T"
Si      -1.76052546       0.17969499       1.49880441       0.00000000
Si      -0.81168183       0.59000751      -2.11187061       0.00000000
Si       1.22872442       2.10722553       0.30668741       0.00000000
Si       0.88935925      -2.31899553       0.27298060       0.00000000
Si       1.34010404      -1.96217937       2.64565895       0.00000000
Si      -0.52409817      -0.58412682       3.53287161       0.00000000
Si       0.89402479       1.62487863      -3.35926267       0.00000000
Si       2.07356617       1.84164966       2.69417893       0.00000000
Si       3.02696612      -0.32267232       2.43426272       0.00000000
Si      -3.14520804       2.18119842       0.84150444       0.00000000
