10
Lattice="16.28999089631971 0.0 0.0 0.0 16.28999089631971 0.0 0.0 0.0 34.28971787722196" Properties=species:S:1:pos:R:3:initial_magmoms:R:1 pbc="T T T"
Si       1.11443148      -1.52003619       1.41664620       0.00000000
Si      -0.64614285       1.80375912       1.39236906       0.00000000
Si       1.78866385       0.88268994      -1.31446278       0.00000000
Si      -2.05656363      -0.78301143      -1.03764173       0.00000000
Si       0.68846427       0.43984629      -3.32565873       0.00000000
Si       1.70058219      -2.69014689      -1.56457212       0.00000000
Si       3.07034639      -0.31368024       1.89649678       0.00000000
Si      -0.58793868      -2.53430046       2.65601445       0.00000000
Si       3.34525643      -0.96485670      -1.44781557       0.00000000
Si      -2.11494699       3.17094581       0.14425692       0.00000000
