10
Lattice="16.28999089631971 0.0 0.0 0.0 16.28999089631971 0.0 0.0 0.0 34.28971787722196" Properties=species:S:1:pos:R:3:initial_magmoms:R:1 pbc="T T T"
Si      -0.89572194      -2.13881184      -0.67108444       0.00000000
Si       0.85307472       0.75890223      -2.15641298       0.00000000
Si      -1.69736913       1.52549334       0.89290475       0.00000000
Si       1.77878655      -0.37784655       1.64549590       0.00000000
Si       0.91127889      -3.57915735      -0.89276759       0.00000000
Si      -3.71809476       1.05964821      -0.25837317       0.00000000
Si       3.32912444       1.38062637       1.43996322       0.00000000
Si       2.64767886       2.27183812      -1.76777310       0.00000000
Si       1.49921757      -1.04485689      -3.54878205       0.00000000
Si       2.35967166       3.21530621       0.38990860       0.00000000
