10
Lattice="16.28999089631971 0.0 0.0 0.0 16.28999089631971 0.0 0.0 0.0 34.28971787722196" Properties=species:S:1:pos:R:3:initial_magmoms:R:1 pbc="T T T"
Si       1.35545832      -1.35633798      -1.36335994       0.00000000
Si       1.34749251       1.35725022       1.37361258       0.00000000
Si      -1.36167784       1.35902583      -1.36318850       0.00000000
Si      -1.37439545      -1.35788553       1.38218501       0.00000000
Si      -0.14946075       2.56090203       2.83246944       0.00000000
Si       2.71142163      -2.71207323      -0.00157733       0.00000000
Si      -2.71629309      -2.71389771      -0.00264031       0.00000000
Si       2.71295289       2.71863810      -0.00181736       0.00000000
Si       2.71303434       0.00104256      -2.72051345       0.00000000
Si      -0.00149868      -2.71402803      -2.71999910       0.00000000
