10
Lattice="16.28999089631971 0.0 0.0 0.0 16.28999089631971 0.0 0.0 0.0 34.28971787722196" Properties=species:S:1:pos:R:3:initial_magmoms:R:1 pbc="T T T"
Si       0.43368378      -0.79094466       2.14506308       0.00000000
Si       0.83103598      -1.81995138      -1.22140043       0.00000000
Si       1.64467424       1.72529019       0.11675655       0.00000000
Si      -1.67611461       0.85465485      -2.24186301       0.00000000
Si       0.18808760      -0.52339770      -3.12907566       0.00000000
Si      -0.58615071       1.17011070       2.98121832       0.00000000
Si      -2.68637154      -2.02053015       0.56300319       0.00000000
Si      -0.87278955      -3.27121119      -0.48832015       0.00000000
Si      -3.36853158      -0.04090419      -0.76654707       0.00000000
Si      -1.70058219       2.69014689       1.56457212       0.00000000
