10
Lattice="16.28999089631971 0.0 0.0 0.0 16.28999089631971 0.0 0.0 0.0 34.28971787722196" Properties=species:S:1:pos:R:3:initial_magmoms:R:1 pbc="T T T"
Si       1.73472210      -1.56590883      -0.07231706       0.00000000
Si       0.04318479       1.70556367      -1.61487517       0.00000000
Si       0.33640479       1.14404670       2.05213789       0.00000000
Si      -1.76504919      -1.41188688      -0.78636654       0.00000000
Si      -2.03620439       1.25430428       2.31472870       0.00000000
Si       1.16212860       0.27157059      -3.21239972       0.00000000
Si       0.61385607      -3.42733455       0.80769476       0.00000000
Si       3.47273478      -0.66862305       1.12316034       0.00000000
Si       1.11061962       3.29079896       1.36925778       0.00000000
Si      -2.21531782       2.46612259      -1.71753864       0.00000000
