10
Lattice="10.86 0.0 0.0 0.0 10.86 0.0 0.0 0.0 10.86" Properties=species:S:1:pos:R:3:initial_magmoms:R:1 pbc="T T T"
Si      -1.35750000      -1.35750000       1.35750000       0.00000000
Si       1.35750000       1.35750000       1.35750000       0.00000000
Si      -1.35750000       1.35750000      -1.35750000       0.00000000
Si       1.35750000      -1.35750000      -1.35750000       0.00000000
Si       2.63521158      -0.08225364       2.61944286       0.00000000
Si      -2.59645224      -2.70574728       0.10410396       0.00000000
Si      -2.50289334       0.16045650      -2.84511366       0.00000000
Si      -2.48963328      -0.24261240       2.85252018       0.00000000
Si      -2.63038974       2.79007518       0.18759564       0.00000000
Si       0.00000000      -2.71500000       2.71500000       0.00000000
