10
Lattice="10.86 0.0 0.0 0.0 10.86 0.0 0.0 0.0 10.86" Properties=species:S:1:pos:R:3:initial_magmoms:R:1 pbc="T T T"
Si       1.19389410       1.38003450       1.24400214       0.00000000
Si      -1.52110590      -1.33496550       1.24400214       0.00000000
Si       1.46865210      -1.32950292      -1.32717888       0.00000000
Si      -1.52110590       1.38003450      -1.47099786       0.00000000
Si       2.57346162       0.09024660       2.66291544       0.00000000
Si       0.07200180      -2.62049628      -2.64562632       0.00000000
Si       2.55139410       2.73753450      -0.11349786       0.00000000
Si      -0.24339432      -2.77471914       2.50594500       0.00000000
Si      -0.16360590       2.73753450       2.60150214       0.00000000
Si       2.57504718       0.09184302      -2.76610716       0.00000000
