10
Lattice="10.86 0.0 0.0 0.0 10.86 0.0 0.0 0.0 10.86" Properties=species:S:1:pos:R:3:initial_magmoms:R:1 pbc="T T T"
Si      -1.22307492       1.22307492      -1.40915016       0.00000000
Si       1.51920540      -1.51920540      -1.46980326       0.00000000
Si      -2.59785318       2.59785318      -0.11621286       0.00000000
Si       0.11714682       2.59785318       2.59878714       0.00000000
Si      -2.59785318      -0.11714682       2.59878714       0.00000000
Si       0.11714682       2.59785318      -2.83121286       0.00000000
Si      -2.59785318      -0.11714682      -2.83121286       0.00000000
Si       2.83214682       2.59785318      -0.11621286       0.00000000
Si      -2.59785318      -2.83214682      -0.11621286       0.00000000
Si       2.83214682      -0.11714682       2.59878714       0.00000000
