10
Lattice="10.86 0.0 0.0 0.0 10.86 0.0 0.0 0.0 10.86" Properties=species:S:1:pos:R:3:initial_magmoms:R:1 pbc="T T T"
Si       1.25646942       1.44962538       1.24373064       0.00000000
Si      -1.45853058      -1.26537462       1.24373064       0.00000000
Si       1.25646942      -1.26537462      -1.47126936       0.00000000
Si       2.61396942       0.09212538       2.60123064       0.00000000
Si      -0.10103058      -2.62287462       2.60123064       0.00000000
Si       2.61396942      -2.62287462      -0.11376936       0.00000000
Si      -0.21836202      -2.58244284      -2.70788670       0.00000000
Si      -0.10103058       2.80712538       2.60123064       0.00000000
Si      -2.81603058       0.09212538       2.60123064       0.00000000
Si      -3.16465830      -2.13219810      -0.39956112       0.00000000
