10
Lattice="10.86 0.0 0.0 0.0 10.86 0.0 0.0 0.0 10.86" Properties=species:S:1:pos:R:3:initial_magmoms:R:1 pbc="T T T"
Si       1.28063292       1.39068816       1.18343592       0.00000000
Si       1.28063292      -1.32431184      -1.53156408       0.00000000
Si      -1.43436708       1.39068816      -1.53156408       0.00000000
Si      -2.59266210       0.15376674       2.48496348       0.00000000
Si       2.63813292       0.03318816       2.54093592       0.00000000
Si      -0.07686708       2.74818816       2.54093592       0.00000000
Si       2.63813292      -2.68181184      -0.17406408       0.00000000
Si       2.63813292       2.74818816      -0.17406408       0.00000000
Si       0.02416350      -2.77393722       2.65470528       0.00000000
Si      -2.68962018      -0.29544630      -2.81520522       0.00000000
