10
Lattice="16.28999089631971 0.0 0.0 0.0 16.28999089631971 0.0 0.0 0.0 34.185847837958455" Properties=species:S:1:pos:R:3:initial_magmoms:R:1 pbc="T T T"
Si      -1.35624443      -1.33292111       1.35708662       0.00000000
Si      -1.43832974       1.20772431      -1.39770968       0.00000000
Si       1.35512086       1.38507354       1.35694987       0.00000000
Si       1.34379279      -1.41531267      -1.36045734       0.00000000
Si       0.26557724       2.19766761      -2.72424238       0.00000000
Si       2.02416582       0.38307564      -2.94976654       0.00000000
Si      -0.00523347      -2.69197756       2.71470995       0.00000000
Si      -2.70474692       2.71994130      -0.01530159       0.00000000
Si       2.71212510       0.02340873       2.71327414       0.00000000
Si      -2.74284923      -2.68306793      -0.02042264       0.00000000
