10
Lattice="16.28999089631971 0.0 0.0 0.0 16.28999089631971 0.0 0.0 0.0 34.185847837958455" Properties=species:S:1:pos:R:3:initial_magmoms:R:1 pbc="T T T"
Si       0.20458611       0.18640647       2.35089370       0.00000000
Si      -1.92322021       1.34676665      -0.65086472       0.00000000
Si       1.85036481       1.44353250      -0.68600779       0.00000000
Si       0.45682047      -2.37074886      -0.48701186       0.00000000
Si      -1.96793626      -1.32901965       2.31910084       0.00000000
Si       0.26073774      -2.17657206       2.80782200       0.00000000
Si       2.14676136      -2.70428661       1.13240684       0.00000000
Si      -1.11192282       2.18526182      -2.70276883       0.00000000
Si       2.61425178       0.56203758       2.65460094       0.00000000
Si      -1.07648881       2.24521879       2.84706737       0.00000000
