10
Lattice="16.28999089631971 0.0 0.0 0.0 16.28999089631971 0.0 0.0 0.0 34.185847837958455" Properties=species:S:1:pos:R:3:initial_magmoms:R:1 pbc="T T T"
Si       1.35687555      -1.35654234       1.35666613       0.00000000
Si       1.35609363       1.35672894      -1.35731566       0.00000000
Si      -1.35775521       1.35777150       1.35690543       0.00000000
Si      -1.35941679      -1.35803933      -1.35762333       0.00000000
Si       2.71353933       0.00039585       2.71288784       0.00000000
Si       2.71350675       0.00178701      -2.71401598       0.00000000
Si       2.71425609      -2.71357910      -0.00030767       0.00000000
Si       0.00262269      -2.71248767      -2.71555434       0.00000000
Si      -0.00097740       2.71448415       2.71408435       0.00000000
Si      -2.71524978      -2.71408409      -0.00023930       0.00000000
