10
Lattice="16.28999089631971 0.0 0.0 0.0 16.28999089631971 0.0 0.0 0.0 34.185847837958455" Properties=species:S:1:pos:R:3:initial_magmoms:R:1 pbc="T T T"
Si       1.34447886       1.36624719      -1.37974159       0.00000000
Si      -1.37222073      -1.34731562      -1.37946810       0.00000000
Si      -1.41897303       1.30768464       1.38086972       0.00000000
Si       1.28982591      -1.55413346       1.49771702       0.00000000
Si      -1.96641477      -0.55764417       2.87243328       0.00000000
Si       2.69697240       2.72177067      -0.00006837       0.00000000
Si       2.70146844      -2.72717636       0.00058116       0.00000000
Si      -2.73424392       2.69679810      -0.03387819       0.00000000
Si       2.69977428       0.00963716      -2.74078351       0.00000000
Si      -0.01443294      -2.70578759      -2.73931352       0.00000000
