10
Lattice="16.28999089631971 0.0 0.0 0.0 16.28999089631971 0.0 0.0 0.0 34.185847837958455" Properties=species:S:1:pos:R:3:initial_magmoms:R:1 pbc="T T T"
Si      -2.30461146       0.35150562      -0.01466574       0.00000000
Si       0.92334978       2.12830479      -0.58139904       0.00000000
Si       0.60284403      -0.52480679       2.27189016       0.00000000
Si       0.29421369      -2.07071054      -1.27492772       0.00000000
Si       0.46941264       0.69198291      -2.62280808       0.00000000
Si       3.16475604       1.54621422      -0.25714609       0.00000000
Si      -3.00798108      -1.05119207       1.78364761       0.00000000
Si       1.49990175      -3.33996218       0.33823497       0.00000000
Si       0.36145881      -2.87872712       2.34802209       0.00000000
Si       2.19706488      -1.73046227      -2.61768020       0.00000000
