10
Lattice="16.28999089631971 0.0 0.0 0.0 16.28999089631971 0.0 0.0 0.0 34.185847837958455" Properties=species:S:1:pos:R:3:initial_magmoms:R:1 pbc="T T T"
Si       0.28688319       0.28572660      -2.33516820       0.00000000
Si       0.45393714       1.43632188       2.04140904       0.00000000
Si       2.68737759      -0.24879717       0.26952137       0.00000000
Si      -0.46941264      -0.69198291       2.62280808       0.00000000
Si       1.72765224      -2.42244518       0.00512788       0.00000000
Si      -2.68775226       0.38646396      -1.23185353       0.00000000
Si      -0.17519895      -2.76269345       1.34788036       0.00000000
Si       2.69534340       0.85423131       2.36566199       0.00000000
Si      -2.77402410      -0.34047729       2.60814235       0.00000000
Si      -3.72734748      -0.96171273       0.53545323       0.00000000
