10
Lattice="16.28999089631971 0.0 0.0 0.0 16.28999089631971 0.0 0.0 0.0 34.185847837958455" Properties=species:S:1:pos:R:3:initial_magmoms:R:1 pbc="T T T"
Si       1.35365013      -1.35135324       1.35765752       0.00000000
Si       1.36489023       1.36928853      -1.34182946       0.00000000
Si      -1.36018242       1.36321236       1.35615334       0.00000000
Si      -1.35979146      -1.35689184      -1.37036783       0.00000000
Si       0.02187747       2.67426414      -2.68690317       0.00000000
Si       2.71280628      -2.70723510      -0.00126488       0.00000000
Si      -2.71762649      -2.70513369       0.00003419       0.00000000
Si      -0.00320913      -2.70813105       2.71476807       0.00000000
Si       2.71202436       0.00627165       2.71446039       0.00000000
Si       2.71023246       2.72051145      -0.00075209       0.00000000
