10
Lattice="16.28999089631971 0.0 0.0 0.0 16.28999089631971 0.0 0.0 0.0 34.185847837958455" Properties=species:S:1:pos:R:3:initial_magmoms:R:1 pbc="T T T"
Si      -1.35663120       1.35822762       1.35587985       0.00000000
Si      -1.35669636      -1.35803214      -1.35748659       0.00000000
Si       1.35876519       1.35718506      -1.35745240       0.00000000
Si       1.36142046      -1.35913986       1.36073425       0.00000000
Si      -2.70549044       0.00161271       2.68372730       0.00000000
Si      -2.71464216       2.71275741      -0.00078627       0.00000000
Si      -2.71388468      -0.00058644      -2.71463132       0.00000000
Si       0.00114030       2.71430496      -2.71459714       0.00000000
Si       0.00074934      -2.71487511      -2.71449458       0.00000000
Si      -2.71462913      -2.71591767      -0.00140162       0.00000000
