10
Lattice="16.28999089631971 0.0 0.0 0.0 16.28999089631971 0.0 0.0 0.0 34.185847837958455" Properties=species:S:1:pos:R:3:initial_magmoms:R:1 pbc="T T T"
Si       2.25562743       0.39122064       0.30852745       0.00000000
Si      -1.03149583      -0.61396263       2.02462378       0.00000000
Si      -0.88570522      -1.98973458      -0.95105082       0.00000000
Si      -1.35386190       1.76089850      -1.07658132       0.00000000
Si      -2.71467053      -1.29444480       0.44742463       0.00000000
Si      -3.34784654       0.46099071      -0.92965047       0.00000000
Si      -1.20334719       3.28973129       0.90079759       0.00000000
Si       2.30443227       1.97652923       2.01764987       0.00000000
Si       0.02502144      -3.73587597       0.34695236       0.00000000
Si       2.95899705       1.79391833      -1.48978590       0.00000000
