10
Lattice="16.28999089631971 0.0 0.0 0.0 16.28999089631971 0.0 0.0 0.0 34.185847837958455" Properties=species:S:1:pos:R:3:initial_magmoms:R:1 pbc="T T T"
Si      -1.48862907       0.21580992      -1.86572787       0.00000000
Si      -0.91772973      -0.25197372       2.20098867       0.00000000
Si       1.32204753       2.01924324      -0.18463787       0.00000000
Si       0.93250476      -2.24163432      -0.32596224       0.00000000
Si      -2.17996038      -2.01363948      -2.07685979       0.00000000
Si      -0.11275938       1.21801959      -3.52859681       0.00000000
Si      -0.02081862      -2.86286976      -2.39865135       0.00000000
Si       3.48847092       1.32662502       0.51825774       0.00000000
Si       0.27793998      -2.05902342       3.18147352       0.00000000
Si      -3.22983948      -0.74582136       2.06462125       0.00000000
