10
Lattice="16.28999089631971 0.0 0.0 0.0 16.28999089631971 0.0 0.0 0.0 34.185847837958455" Properties=species:S:1:pos:R:3:initial_magmoms:R:1 pbc="T T T"
Si       2.22832539      -0.59329809       0.41764874       0.00000000
Si      -1.57767021      -1.71633069       0.30179283       0.00000000
Si      -0.26228529       0.65412495      -2.29985420       0.00000000
Si      -0.67455261       1.39033521       1.86801833       0.00000000
Si      -3.38873214      -0.13317075       0.69575076       0.00000000
Si      -1.26245871       3.30379119       0.60481636       0.00000000
Si       3.29947434       1.57967388       0.48810581       0.00000000
Si       2.30316165      -1.33512840       2.59518590       0.00000000
Si       1.28443392       2.44636704      -2.49385899       0.00000000
Si      -2.48741784       0.21507687       2.89646595       0.00000000
