10
Lattice="16.28999089631971 0.0 0.0 0.0 16.28999089631971 0.0 0.0 0.0 34.185847837958455" Properties=species:S:1:pos:R:3:initial_magmoms:R:1 pbc="T T T"
Si       2.31210975       0.49384764       0.13636742       0.00000000
Si      -1.10990516       2.09090295      -0.13821346       0.00000000
Si      -1.06199627      -0.61820550       2.07070633       0.00000000
Si      -0.15051471      -1.52883279      -1.97737892       0.00000000
Si      -1.62338225       0.34446834      -2.91868676       0.00000000
Si      -3.12106856       0.87700473      -1.10075073       0.00000000
Si       1.20334719      -3.28973129      -0.90079759       0.00000000
Si       0.18510816      -2.36172420       2.92179768       0.00000000
Si       2.54091909       2.09508948       1.84928447       0.00000000
Si      -3.26305220      -1.21588560       1.53945796       0.00000000
