10
Lattice="16.28999089631971 0.0 0.0 0.0 16.28999089631971 0.0 0.0 0.0 34.185847837958455" Properties=species:S:1:pos:R:3:initial_magmoms:R:1 pbc="T T T"
Si       1.35651717       1.35676152      -1.35717892       0.00000000
Si       1.35762489      -1.35711990       1.35714473       0.00000000
Si      -1.35798327       1.35786924       1.35741822       0.00000000
Si      -1.35736425      -1.35783666      -1.35851217       0.00000000
Si       2.71305063      -0.00053757      -2.71541760       0.00000000
Si      -0.00114030      -2.71430496       2.71459714       0.00000000
Si      -2.71578246      -0.00154755       2.71381086       0.00000000
Si       2.71484253      -2.71477737      -0.00020512       0.00000000
Si       2.71614573      -0.00013032       2.71374249       0.00000000
Si      -2.71502498      -2.71489140      -0.00003419       0.00000000
