10
Lattice="16.28999089631971 0.0 0.0 0.0 16.28999089631971 0.0 0.0 0.0 34.185847837958455" Properties=species:S:1:pos:R:3:initial_magmoms:R:1 pbc="T T T"
Si      -1.36394541      -1.34649882       1.35362359       0.00000000
Si       1.35721764      -1.35506736      -1.36039239       0.00000000
Si      -1.35966114       1.36032903      -1.35923007       0.00000000
Si       1.36347300       1.35557235       1.37587859       0.00000000
Si       2.71301805      -2.71062342      -0.00594834       0.00000000
Si      -2.71669959      -2.71101438      -0.00365789       0.00000000
Si      -0.00130320      -2.71205694      -2.71699015       0.00000000
Si       2.71340901       0.00249237      -2.71750294       0.00000000
Si      -2.71691136       0.00293220      -2.71671666       0.00000000
Si       2.71423980       2.71974582      -0.00017093       0.00000000
