10
Lattice="16.28999089631971 0.0 0.0 0.0 16.28999089631971 0.0 0.0 0.0 34.185847837958455" Properties=species:S:1:pos:R:3:initial_magmoms:R:1 pbc="T T T"
Si       1.35076680       1.36417347      -1.37604952       0.00000000
Si      -1.36347300      -1.35557235      -1.37587859       0.00000000
Si      -1.40462154       1.30807071       1.41197886       0.00000000
Si       1.32742323      -1.40704875       1.41071399       0.00000000
Si       2.70790299       2.69764029       0.00451253       0.00000000
Si      -2.72741841      -2.70207117      -0.02225500       0.00000000
Si       2.70451467      -2.72715777      -0.00923018       0.00000000
Si      -2.72779308       2.71303434       0.00102558       0.00000000
Si       2.70622512       0.00392589      -2.73490354       0.00000000
Si      -0.00625536      -2.71063971      -2.73627098       0.00000000
