10
Lattice="16.28999089631971 0.0 0.0 0.0 16.28999089631971 0.0 0.0 0.0 34.185847837958455" Properties=species:S:1:pos:R:3:initial_magmoms:R:1 pbc="T T T"
Si      -1.46388456      -0.85429647      -1.59753975       0.00000000
Si      -0.58591872       1.32133077       1.82993527       0.00000000
Si       1.75589910      -1.44018261       0.79290700       0.00000000
Si       1.21272534       1.80587682      -1.64430601       0.00000000
Si       0.80511696      -2.83851621      -0.75109768       0.00000000
Si      -2.41039872       1.42675965      -1.78217762       0.00000000
Si      -2.53741185      -2.45418624       0.21961001       0.00000000
Si       1.50651549       2.48181408       2.02236752       0.00000000
Si       2.79249696       2.21517936       0.01740061       0.00000000
Si       3.58223616      -0.03587058       0.38394147       0.00000000
