10
Lattice="16.28999089631971 0.0 0.0 0.0 16.28999089631971 0.0 0.0 0.0 34.185847837958455" Properties=species:S:1:pos:R:3:initial_magmoms:R:1 pbc="T T T"
Si       0.69558300      -1.70048052      -1.49689656       0.00000000
Si       1.54671921       1.79224209      -0.19400479       0.00000000
Si      -2.07967914       0.70187094      -0.93050511       0.00000000
Si       0.26228529      -0.65412495       2.29985420       0.00000000
Si       0.59963490       3.32182422       1.27297913       0.00000000
Si       0.07112214      -0.60053085      -3.65272570       0.00000000
Si      -1.57574799       1.11267216      -3.21001872       0.00000000
Si      -1.31538492      -2.37045564       2.60164703       0.00000000
Si       2.86200639      -2.39309874      -0.79400095       0.00000000
Si       2.49061068      -1.24742304       2.71750294       0.00000000
