10
Lattice="16.28999089631971 0.0 0.0 0.0 16.28999089631971 0.0 0.0 0.0 34.185847837958455" Properties=species:S:1:pos:R:3:initial_magmoms:R:1 pbc="T T T"
Si       0.94708431      -1.52958213      -1.46698392       0.00000000
Si       1.38763107       1.08729234       1.55343998       0.00000000
Si      -0.91323369       1.72760337      -1.31731820       0.00000000
Si      -1.59980832      -0.67215798       1.63169143       0.00000000
Si      -0.08066808       2.84850198       2.03087980       0.00000000
Si      -2.02235463       1.55747061       2.40193320       0.00000000
Si      -0.59963490      -3.32182422      -1.27297913       0.00000000
Si       1.42298037      -0.14683806      -3.31537956       0.00000000
Si       1.98342153      -0.63400680       2.96323095       0.00000000
Si       0.03039714       3.61910043      -0.28446060       0.00000000
