10
Lattice="16.28999089631971 0.0 0.0 0.0 16.28999089631971 0.0 0.0 0.0 34.185847837958455" Properties=species:S:1:pos:R:3:initial_magmoms:R:1 pbc="T T T"
Si       1.31748633      -1.12370049       1.56726683       0.00000000
Si       1.21143843       1.99407519      -0.20826030       0.00000000
Si       0.01451439      -1.70020359      -1.66211685       0.00000000
Si      -1.73462436       1.71444105       1.26159523       0.00000000
Si      -0.62152866      -1.78181649       2.69466476       0.00000000
Si       2.14682652       0.77387274       2.67829999       0.00000000
Si      -1.80952578       2.28418380      -2.25780558       0.00000000
Si       0.08685828      -0.41629095      -3.66954514       0.00000000
Si      -2.43843381      -2.63855646       1.21872616       0.00000000
Si       0.27517068       3.27705930      -1.90685347       0.00000000
