10
Lattice="16.28999089631971 0.0 0.0 0.0 16.28999089631971 0.0 0.0 0.0 34.185847837958455" Properties=species:S:1:pos:R:3:initial_magmoms:R:1 pbc="T T T"
Si       1.44011745       0.09389556      -1.77663951       0.00000000
Si       1.51501887      -0.47584719       1.74276131       0.00000000
Si      -1.86655707      -1.45153674      -0.04666371       0.00000000
Si       0.17343963       2.08824768      -1.98243842       0.00000000
Si      -1.71258399       2.61596223      -0.30702327       0.00000000
Si      -0.06923250      -1.33768593       3.20258470       0.00000000
Si      -0.96275529      -2.97316935       1.71995934       0.00000000
Si       3.24964323      -2.19028824       0.48116608       0.00000000
Si      -2.56932233      -1.55271393      -2.56968325       0.00000000
Si       3.52481391       1.08677106      -1.42568739       0.00000000
