10
Lattice="16.28999089631971 0.0 0.0 0.0 16.28999089631971 0.0 0.0 0.0 34.185847837958455" Properties=species:S:1:pos:R:3:initial_magmoms:R:1 pbc="T T T"
Si      -0.73072053      -1.90573452       1.18849354       0.00000000
Si       0.35365590       0.04496040      -2.37568533       0.00000000
Si      -1.60295229       1.79802504      -0.14478402       0.00000000
Si       1.90198782       0.85582773       1.25581577       0.00000000
Si      -1.96649622      -0.44905014       2.64975133       0.00000000
Si       0.74560959       2.29257315       2.66316929       0.00000000
Si       2.32935597       1.34807895      -2.49143867       0.00000000
Si      -3.35676627       0.87553863       1.26628690       0.00000000
Si       2.74427856       2.57805444      -0.22060828       0.00000000
Si      -0.63682497       3.53440287       1.18035389       0.00000000
