10
Lattice="16.28999089631971 0.0 0.0 0.0 16.28999089631971 0.0 0.0 0.0 34.185847837958455" Properties=species:S:1:pos:R:3:initial_magmoms:R:1 pbc="T T T"
Si       1.35694071       1.35645201       1.35772589       0.00000000
Si       1.35695700      -1.35747828      -1.35714473       0.00000000
Si      -1.35764118       1.35739683      -1.35687124       0.00000000
Si      -1.35819504      -1.35782037       1.35799938       0.00000000
Si      -0.00180819       2.71344159      -2.71425528       0.00000000
Si       2.71349046      -0.00154755      -2.71493899       0.00000000
Si       2.71448415       2.71493857       0.00003419       0.00000000
Si      -2.71503801       2.71442671       0.00054697       0.00000000
Si      -2.71422351       0.00065160       2.71593039       0.00000000
Si      -2.71552671      -0.00257382      -2.71473388       0.00000000
