10
Lattice="16.28999089631971 0.0 0.0 0.0 16.28999089631971 0.0 0.0 0.0 34.185847837958455" Properties=species:S:1:pos:R:3:initial_magmoms:R:1 pbc="T T T"
Si      -1.35725022      -1.35739683      -1.35748659       0.00000000
Si      -1.35602847       1.35847197       1.35793101       0.00000000
Si       1.35819504       1.35782037      -1.35799938       0.00000000
Si       1.35966114      -1.36032903       1.35923007       0.00000000
Si      -0.00428427      -2.70682785       2.71285366       0.00000000
Si      -2.71582156       2.71280628      -0.00082046       0.00000000
Si       2.71513575       2.71427238      -0.00027349       0.00000000
Si      -2.71467963      -0.00035838      -2.71510992       0.00000000
Si      -2.71168553      -0.00767259       2.71815247       0.00000000
Si       0.00055386       2.71521720      -2.71487062       0.00000000
