10
Lattice="16.28999089631971 0.0 0.0 0.0 16.28999089631971 0.0 0.0 0.0 34.185847837958455" Properties=species:S:1:pos:R:3:initial_magmoms:R:1 pbc="T T T"
Si       1.39519452      -1.27664613       1.36331870       0.00000000
Si      -1.34379279       1.41531267       1.36045734       0.00000000
Si      -1.06404162      -1.79193488      -1.19568112       0.00000000
Si       0.68037303       1.79838831      -1.58930920       0.00000000
Si      -0.22974602       0.26523215      -3.43989273       0.00000000
Si      -2.43084497      -0.23819727      -2.48289357       0.00000000
Si       2.57336877       2.73941274      -0.13201556       0.00000000
Si       0.01011772      -2.63148890       2.71292887       0.00000000
Si       2.68099680      -2.68772198      -0.03240136       0.00000000
Si      -2.78212253       2.62303698      -0.03725234       0.00000000
