10
Lattice="16.28999089631971 0.0 0.0 0.0 16.28999089631971 0.0 0.0 0.0 34.185847837958455" Properties=species:S:1:pos:R:3:initial_magmoms:R:1 pbc="T T T"
Si       1.00602153       0.01000206      -2.26491624       0.00000000
Si      -0.68037303      -1.79838831       1.58930920       0.00000000
Si      -1.75858858       1.81459197       0.22552416       0.00000000
Si       1.89299574       0.94102443       1.45729364       0.00000000
Si      -0.91011904      -1.53315616      -1.85058354       0.00000000
Si      -2.02416582      -0.38307564       2.94976654       0.00000000
Si       1.40260158       2.28731148      -2.61046699       0.00000000
Si       0.68879007       2.35023975       2.93631440       0.00000000
Si      -3.11121800      -2.03658557      -0.89358438       0.00000000
Si      -3.46249556       0.82464867       1.55205686       0.00000000
