10
Lattice="16.28999089631971 0.0 0.0 0.0 16.28999089631971 0.0 0.0 0.0 34.185847837958455" Properties=species:S:1:pos:R:3:initial_magmoms:R:1 pbc="T T T"
Si       0.96612732       1.73637783       1.32513791       0.00000000
Si       1.60295229      -1.79802504       0.14478402       0.00000000
Si      -0.97381620       0.34728651      -2.18888687       0.00000000
Si      -1.75381398      -0.92248641       1.41107092       0.00000000
Si       1.95660819      -1.75306464      -2.23090130       0.00000000
Si      -0.36354393      -2.24707518       2.79453536       0.00000000
Si       2.34856188       0.49454811       2.80795331       0.00000000
Si       2.76977241       2.60503883       0.00700810       0.00000000
Si       3.50494011      -0.94219731       1.40059979       0.00000000
Si       0.16741233      -1.19019627      -3.77264972       0.00000000
