10
Lattice="16.28999089631971 0.0 0.0 0.0 16.28999089631971 0.0 0.0 0.0 34.185847837958455" Properties=species:S:1:pos:R:3:initial_magmoms:R:1 pbc="T T T"
Si      -1.35676152      -1.35513604       1.35786263       0.00000000
Si      -1.35751086       1.36023007      -1.35584567       0.00000000
Si       1.35961227      -1.35292060      -1.36117866       0.00000000
Si       1.35839052       1.35913376       1.35782845       0.00000000
Si       2.69112429       0.00954242      -2.73410701       0.00000000
Si       0.00104256      -2.71318447       2.71490481       0.00000000
Si      -2.71414206       0.00190072       2.71483644       0.00000000
Si      -2.71513575      -2.71458541      -0.00013674       0.00000000
Si      -2.71492398       2.71517200       0.00085465       0.00000000
Si       2.71609686       0.00164521       2.71510992       0.00000000
