10
Lattice="16.28999089631971 0.0 0.0 0.0 16.28999089631971 0.0 0.0 0.0 34.185847837958455" Properties=species:S:1:pos:R:3:initial_magmoms:R:1 pbc="T T T"
Si      -1.35666378      -1.35693819      -1.35622171       0.00000000
Si       1.35897696       1.35784806      -1.35587985       0.00000000
Si      -1.35529542       1.35661002       1.36104192       0.00000000
Si       1.35979146      -1.35369478       1.36182820       0.00000000
Si       2.69643483       0.01580456       2.72516057       0.00000000
Si      -2.71353933      -0.00039585      -2.71288784       0.00000000
Si       0.00071676      -2.71397494      -2.71319552       0.00000000
Si       0.00143352       2.71513086      -2.71322970       0.00000000
Si      -2.71451673       2.71408830       0.00119651       0.00000000
Si       2.71565703       2.71306203       0.00140162       0.00000000
