10
Lattice="16.28999089631971 0.0 0.0 0.0 16.28999089631971 0.0 0.0 0.0 34.185847837958455" Properties=species:S:1:pos:R:3:initial_magmoms:R:1 pbc="T T T"
Si       1.19347056      -0.14092479      -1.96602921       0.00000000
Si      -2.19626667      -0.40517303      -0.75215744       0.00000000
Si      -0.24143409       2.31511851       0.55668266       0.00000000
Si       0.99926118      -1.79325028       1.38093810       0.00000000
Si      -0.32364972       1.79315433       2.83106838       0.00000000
Si       0.99070893      -2.52132452      -2.25055818       0.00000000
Si      -3.41094681       1.07523774       0.64218151       0.00000000
Si       3.38362848       0.51132681      -1.37929717       0.00000000
Si       0.36564534       1.66584798      -3.28119370       0.00000000
Si      -2.43765189      -2.75909336      -0.67602552       0.00000000
