10
Lattice="16.28999089631971 0.0 0.0 0.0 16.28999089631971 0.0 0.0 0.0 34.185847837958455" Properties=species:S:1:pos:R:3:initial_magmoms:R:1 pbc="T T T"
Si       1.83422142       1.04907421       1.05887304       0.00000000
Si      -1.55005866      -1.18010545       1.38435668       0.00000000
Si       0.77076135      -1.69659619      -1.54123563       0.00000000
Si      -0.99926118       1.79325028      -1.38093810       0.00000000
Si      -2.49914664      -2.41664677      -0.40380346       0.00000000
Si       0.73754604       2.73049543       2.28077848       0.00000000
Si      -0.00855225      -0.72807424      -3.63149627       0.00000000
Si       0.19420938       1.65232549      -3.34696730       0.00000000
Si       2.76161112       2.54431702      -0.48960999       0.00000000
Si      -0.60393546      -3.61682881      -1.15373882       0.00000000
