10
Lattice="16.28999089631971 0.0 0.0 0.0 16.28999089631971 0.0 0.0 0.0 34.185847837958455" Properties=species:S:1:pos:R:3:initial_magmoms:R:1 pbc="T T T"
Si       0.55141650      -1.70497723       1.56947315       0.00000000
Si       2.24474571       0.78070314      -0.31136488       0.00000000
Si      -1.12024701      -0.33730726      -2.12995044       0.00000000
Si      -0.83658924       1.81484284       1.46144581       0.00000000
Si       0.44927820      -1.86310426      -3.13850189       0.00000000
Si       2.25505728      -2.89396804       0.38209543       0.00000000
Si      -1.42428357      -3.00809578       1.68522650       0.00000000
Si       3.73736583      -1.05904615      -0.07900354       0.00000000
Si      -1.45860660       1.85170711      -3.09611141       0.00000000
Si      -2.77558794       2.75531341       0.21290958       0.00000000
