10
Lattice="16.28999089631971 0.0 0.0 0.0 16.28999089631971 0.0 0.0 0.0 34.185847837958455" Properties=species:S:1:pos:R:3:initial_magmoms:R:1 pbc="T T T"
Si      -1.33863075      -1.34078103       1.35866942       0.00000000
Si      -1.33221249       1.40629941      -1.35372273       0.00000000
Si       1.30253211      -1.43746218      -1.36534934       0.00000000
Si       1.37766159       1.37407779       1.35996848       0.00000000
Si       0.60680250       2.06441541      -2.48112066       0.00000000
Si       2.24487603       0.19186362      -2.75520452       0.00000000
Si      -2.70374904      -2.70469386      -0.03445252       0.00000000
Si      -2.69778690       0.01510083       2.71759182       0.00000000
Si       0.01690902      -2.70119151       2.71755763       0.00000000
Si      -2.68654680       2.73574260       0.01810484       0.00000000
