10
Lattice="16.28999089631971 0.0 0.0 0.0 16.28999089631971 0.0 0.0 0.0 34.185847837958455" Properties=species:S:1:pos:R:3:initial_magmoms:R:1 pbc="T T T"
Si      -1.35138582       1.30215744      -1.43372107       0.00000000
Si       1.54567665       1.10338686       1.44572031       0.00000000
Si       1.34260551      -1.42079751      -1.40404774       0.00000000
Si      -1.73855025      -1.11412197       1.26354383       0.00000000
Si      -0.03637557      -2.51708193       2.65046445       0.00000000
Si       0.31680792       2.72637585       2.50158500       0.00000000
Si       2.69457777       2.57961924       0.01350342       0.00000000
Si      -2.78179443       2.58090615      -0.11442010       0.00000000
Si      -0.01125639       2.65641030      -2.78973767       0.00000000
Si       2.64438828      -2.81329929       0.08604583       0.00000000
