10
Lattice="16.28999089631971 0.0 0.0 0.0 16.28999089631971 0.0 0.0 0.0 34.185847837958455" Properties=species:S:1:pos:R:3:initial_magmoms:R:1 pbc="T T T"
Si       1.99892961       1.27335672       0.00728159       0.00000000
Si       0.63026010      -1.70553042       1.52978336       0.00000000
Si      -0.06551838      -0.18609696      -2.38535305       0.00000000
Si      -2.15679600       0.98896590       0.68997335       0.00000000
Si      -2.08445211       2.27287854      -1.31745494       0.00000000
Si      -2.26955538       0.40527891      -2.72581010       0.00000000
Si       0.78424947      -0.30708279       3.64527318       0.00000000
Si      -1.26190485      -3.33337383       1.14488468       0.00000000
Si       3.10010103       0.86912037      -2.03785371       0.00000000
Si       1.68630822       3.53763414      -0.26582930       0.00000000
