10
Lattice="16.28999089631971 0.0 0.0 0.0 16.28999089631971 0.0 0.0 0.0 34.185847837958455" Properties=species:S:1:pos:R:3:initial_magmoms:R:1 pbc="T T T"
Si       1.32944319      -1.26887697       1.38613093       0.00000000
Si      -0.82934019      -1.89757323      -1.11103315       0.00000000
Si       1.85678307       0.84693339      -1.24331161       0.00000000
Si      -1.41312492       1.48012569       1.34491987       0.00000000
Si      -0.93538809       1.22020245      -2.88656029       0.00000000
Si      -2.14682652      -0.77387274      -2.67829999       0.00000000
Si      -0.05848110      -2.58791085       2.73005599       0.00000000
Si      -2.76835518      -2.55568923       0.01636477       0.00000000
Si       2.65483017       0.12341304       2.72708181       0.00000000
Si       2.62171260      -2.76104097      -0.11377398       0.00000000
