10
Lattice="16.28999089631971 0.0 0.0 0.0 16.28999089631971 0.0 0.0 0.0 34.185847837958455" Properties=species:S:1:pos:R:3:initial_magmoms:R:1 pbc="T T T"
Si       1.35404109       1.36267479       1.38363194       0.00000000
Si      -1.36422234      -1.35514881       1.38434984       0.00000000
Si      -1.49636682       1.23981561      -1.44246582       0.00000000
Si       1.41312492      -1.48012569      -1.34491987       0.00000000
Si      -2.46832596      -0.53955738      -2.76162462       0.00000000
Si       2.69781948       2.70832653       0.00303229       0.00000000
Si      -2.70956457      -2.70637173       0.04327247       0.00000000
Si      -2.73214251       2.69649999       0.01879197       0.00000000
Si       2.70920619       0.00232947       2.74173388       0.00000000
Si      -0.00513135      -2.71249677       2.74262271       0.00000000
