10
Lattice="16.28999089631971 0.0 0.0 0.0 16.28999089631971 0.0 0.0 0.0 34.185847837958455" Properties=species:S:1:pos:R:3:initial_magmoms:R:1 pbc="T T T"
Si       1.40396994      -1.29301875       1.39024691       0.00000000
Si      -0.78377706      -1.91966247      -1.20510548       0.00000000
Si      -1.35586557       1.42185636       1.38615828       0.00000000
Si       0.91517220       1.76702517      -1.60282629       0.00000000
Si       0.23351715       0.43310223      -3.49063823       0.00000000
Si       2.52095895       2.58931179       0.07015965       0.00000000
Si      -2.64056013      -2.76659586       0.03820612       0.00000000
Si       0.01427004      -2.64318282       2.76528794       0.00000000
Si      -2.69964396       0.07620462       2.76675793       0.00000000
Si       2.73142575       0.07384257       2.77280883       0.00000000
