10
Lattice="16.28999089631971 0.0 0.0 0.0 16.28999089631971 0.0 0.0 0.0 34.185847837958455" Properties=species:S:1:pos:R:3:initial_magmoms:R:1 pbc="T T T"
Si      -1.35729909      -1.35689184       1.35693962       0.00000000
Si       1.35812988       1.35744570       1.35700799       0.00000000
Si       1.35977517      -1.35553977      -1.35748659       0.00000000
Si      -1.35909099       1.35734796      -1.35827287       0.00000000
Si      -2.70443322       0.00612504      -2.69935024       0.00000000
Si       2.71355562      -2.71467963      -0.00058116       0.00000000
Si       0.00040725      -2.71420722       2.71422109       0.00000000
Si      -2.71451673       0.00076563       2.71428946       0.00000000
Si       2.71492398       0.00087966       2.71411853       0.00000000
Si       0.00019548       2.71531494       2.71377668       0.00000000
