10
Lattice="16.28999089631971 0.0 0.0 0.0 16.28999089631971 0.0 0.0 0.0 34.185847837958455" Properties=species:S:1:pos:R:3:initial_magmoms:R:1 pbc="T T T"
Si      -1.35619137      -1.35755973       1.35711055       0.00000000
Si       1.35628911       1.35700587       1.35847798       0.00000000
Si       1.35793440      -1.35786924      -1.35676869       0.00000000
Si      -1.35791811       1.35817875      -1.35687124       0.00000000
Si      -0.00039096      -2.71311579       2.71155459       0.00000000
Si      -0.00138465       2.71410948      -2.71466551       0.00000000
Si       2.71414206      -0.00048870      -2.71466551       0.00000000
Si      -0.00019548      -2.71531494      -2.71377668       0.00000000
Si       2.71472850      -2.71443528       0.00034186       0.00000000
Si      -2.71471221      -2.71454931       0.00051279       0.00000000
