10
Lattice="16.28999089631971 0.0 0.0 0.0 16.28999089631971 0.0 0.0 0.0 34.185847837958455" Properties=species:S:1:pos:R:3:initial_magmoms:R:1 pbc="T T T"
Si      -1.23844531       1.21663494      -1.54889668       0.00000000
Si      -1.37682886      -1.33569855       1.36762612       0.00000000
Si       1.33816095       1.37819916       1.36906192       0.00000000
Si       1.44558046      -1.33232652      -1.47334933       0.00000000
Si       2.69574348      -2.69933445       0.00313826       0.00000000
Si       2.69535252       0.02076975       2.72965943       0.00000000
Si      -0.02060069      -2.69606016       2.73147128       0.00000000
Si      -2.70234616       2.72666907      -0.00447493       0.00000000
Si       2.68969989       2.74203054      -0.00101190       0.00000000
Si      -2.72195932      -2.71270854       0.00128881       0.00000000
