10
Lattice="16.28999089631971 0.0 0.0 0.0 16.28999089631971 0.0 0.0 0.0 34.185847837958455" Properties=species:S:1:pos:R:3:initial_magmoms:R:1 pbc="T T T"
Si       1.35264015      -1.35371529      -1.35967449       0.00000000
Si      -1.36233270       1.36133901      -1.35895658       0.00000000
Si       1.36860435       1.35293337       1.36169145       0.00000000
Si      -1.36404315      -1.36974465       1.36671677       0.00000000
Si      -0.07315839       2.52441243       2.78679769       0.00000000
Si       2.71370223      -2.71109583      -0.00082046       0.00000000
Si      -0.00389331      -2.71010214      -2.71709270       0.00000000
Si      -2.71901277      -2.70878265      -0.00587997       0.00000000
Si       2.71119357       0.00452862      -2.71705852       0.00000000
Si       2.71235016       2.72025081      -0.00331603       0.00000000
