10
Lattice="16.28999089631971 0.0 0.0 0.0 16.28999089631971 0.0 0.0 0.0 34.185847837958455" Properties=species:S:1:pos:R:3:initial_magmoms:R:1 pbc="T T T"
Si       1.22886873      -1.62298899      -1.05586469       0.00000000
Si      -0.30648006      -0.89316441       2.10697754       0.00000000
Si      -1.74684186       1.10659599      -1.11575833       0.00000000
Si      -2.57548158       1.09105533       1.26053547       0.00000000
Si       3.01304727       0.56037600       0.67527343       0.00000000
Si       2.37776985      -0.14675661      -2.48808158       0.00000000
Si      -0.35018613       2.58918147      -2.49878176       0.00000000
Si      -1.11159702       1.94535180       2.85807522       0.00000000
Si      -0.31680792      -2.72637585      -2.50158500       0.00000000
Si       0.64430208       0.50516919       3.65098222       0.00000000
