10
Lattice="16.28999089631971 0.0 0.0 0.0 16.28999089631971 0.0 0.0 0.0 34.185847837958455" Properties=species:S:1:pos:R:3:initial_magmoms:R:1 pbc="T T T"
Si      -1.76896368       0.06405228      -1.43621664       0.00000000
Si       0.31262139      -2.26427742       0.27311089       0.00000000
Si      -0.39193740       1.28827836       1.86900972       0.00000000
Si       1.76937093       1.04659992      -1.12071528       0.00000000
Si       1.41379281      -2.66851377      -1.77202441       0.00000000
Si       2.06681004      -2.08096605       1.95990994       0.00000000
Si       2.91301038      -0.85776624      -1.90107606       0.00000000
Si       2.92030830       2.02062789       0.64365150       0.00000000
Si      -2.43051687       2.30938443      -1.45095075       0.00000000
Si      -0.84927915      -0.17192466      -3.57949957       0.00000000
