10
Lattice="16.28999089631971 0.0 0.0 0.0 16.28999089631971 0.0 0.0 0.0 34.185847837958455" Properties=species:S:1:pos:R:3:initial_magmoms:R:1 pbc="T T T"
Si      -1.20420567       1.40921532       1.47902077       0.00000000
Si       1.50327378      -1.30504077       1.45500178       0.00000000
Si      -1.89299574      -0.94102443      -1.45729364       0.00000000
Si       1.05790518       1.94921253      -1.34020704       0.00000000
Si      -2.45436869       2.77622325       0.00253317       0.00000000
Si      -2.57336877      -2.73941274       0.13201556       0.00000000
Si      -2.56204070       0.06097347       2.84942278       0.00000000
Si       0.15387534      -2.65882122       2.84812371       0.00000000
Si      -0.88697421      -0.93102237      -3.72220988       0.00000000
Si      -3.65158432       0.87356754      -1.23176947       0.00000000
