10
Lattice="16.28999089631971 0.0 0.0 0.0 16.28999089631971 0.0 0.0 0.0 34.185847837958455" Properties=species:S:1:pos:R:3:initial_magmoms:R:1 pbc="T T T"
Si      -1.35653346      -1.35593073       1.35779426       0.00000000
Si      -1.35325917       1.36054080      -1.35724729       0.00000000
Si       1.36036161      -1.35425286      -1.35810194       0.00000000
Si       1.35837423       1.35944937       1.35799938       0.00000000
Si      -2.71349046       0.00154755       2.71493899       0.00000000
Si       0.00138465      -2.71410948       2.71466551       0.00000000
Si      -2.71443528      -2.71477737       0.00085465       0.00000000
Si       2.71513575       2.71458541       0.00013674       0.00000000
Si       2.71552671      -2.71459818       0.00000000       0.00000000
Si      -2.71529865       2.71498914       0.00068372       0.00000000
