10
Lattice="16.28999089631971 0.0 0.0 0.0 16.28999089631971 0.0 0.0 0.0 34.185847837958455" Properties=species:S:1:pos:R:3:initial_magmoms:R:1 pbc="T T T"
Si       1.35718832      -1.35744570       1.35714473       0.00000000
Si      -1.35721581       1.35738054       1.35745240       0.00000000
Si       1.35766073       1.35705474      -1.35847798       0.00000000
Si      -1.35829249      -1.35977517      -1.35666613       0.00000000
Si       0.00021666      -2.71129131      -2.71459714       0.00000000
Si      -0.00075748       2.71334385       2.71384505       0.00000000
Si       2.71388468       0.00058644       2.71463132       0.00000000
Si      -0.00074445      -2.71533123       2.71322970       0.00000000
Si       2.71463402      -2.71428867       0.00013674       0.00000000
Si      -2.71439034       2.71520091      -0.00010256       0.00000000
