10
Lattice="16.28999089631971 0.0 0.0 0.0 16.28999089631971 0.0 0.0 0.0 34.185847837958455" Properties=species:S:1:pos:R:3:initial_magmoms:R:1 pbc="T T T"
Si      -1.13844294       0.46123506       2.00978712       0.00000000
Si       0.00449604      -2.30169555      -0.56464796       0.00000000
Si      -1.20568806       1.26925164      -1.61316269       0.00000000
Si       2.28991788       0.69900390       0.43525446       0.00000000
Si       0.69716313       1.60949991      -2.95591517       0.00000000
Si      -0.89705772       2.81515539       1.93365519       0.00000000
Si      -1.49990175       3.33996218      -0.33823497       0.00000000
Si      -0.20067651      -0.98956863       3.66294727       0.00000000
Si       2.22156504      -0.28357632      -3.12985286       0.00000000
Si       1.29047751      -2.56833027      -2.56961487       0.00000000
