10
Lattice="16.28999089631971 0.0 0.0 0.0 16.28999089631971 0.0 0.0 0.0 34.185847837958455" Properties=species:S:1:pos:R:3:initial_magmoms:R:1 pbc="T T T"
Si       1.35580041       1.35747389       1.35745240       0.00000000
Si      -1.35770634       1.35748855      -1.35728148       0.00000000
Si       1.35734796      -1.35792154      -1.35724729       0.00000000
Si      -1.35755973      -1.35922474       1.35700799       0.00000000
Si       2.71264319      -0.00101241      -2.71408435       0.00000000
Si       0.00169416       2.71580739       2.71165715       0.00000000
Si      -0.00034209       2.71404807      -2.71367412       0.00000000
Si       0.00112401      -2.71442242       2.71353737       0.00000000
Si      -2.71459818       2.71504176       0.00006837       0.00000000
Si      -2.71505430      -2.71482967      -0.00020512       0.00000000
