10
Lattice="16.28999089631971 0.0 0.0 0.0 16.28999089631971 0.0 0.0 0.0 34.185847837958455" Properties=species:S:1:pos:R:3:initial_magmoms:R:1 pbc="T T T"
Si       1.35174420       1.33353198       1.36169145       0.00000000
Si       1.35410625      -1.35833351      -1.35420475       0.00000000
Si      -1.35961227       1.35444834      -1.35430730       0.00000000
Si      -1.37883447      -1.34280913       1.36945164       0.00000000
Si       2.56305231      -0.18642276       2.75134694       0.00000000
Si       2.71334994      -0.00063531      -2.71196482       0.00000000
Si      -0.00177561       2.71384884      -2.71186227       0.00000000
Si      -0.00169416      -2.71580739      -2.71165715       0.00000000
Si      -2.71547784      -2.71230848       0.00611927       0.00000000
Si      -2.71629234      -0.00076563      -2.71158878       0.00000000
