10
Lattice="16.28999089631971 0.0 0.0 0.0 16.28999089631971 0.0 0.0 0.0 34.185847837958455" Properties=species:S:1:pos:R:3:initial_magmoms:R:1 pbc="T T T"
Si       1.21801959      -1.49802744       1.33851343       0.00000000
Si      -1.33664337      -1.36949934      -1.36333237       0.00000000
Si       1.37883447       1.34280913      -1.36945164       0.00000000
Si      -1.39745394       1.30382716       1.50564814       0.00000000
Si      -2.69923671       2.69632894       0.01555457       0.00000000
Si       2.73057867       2.67634112      -0.00776019       0.00000000
Si       0.01922220       2.69725748      -2.72375895       0.00000000
Si      -2.69643483      -0.01580456      -2.72516057       0.00000000
Si       2.71813311      -2.72598393      -0.00810205       0.00000000
Si      -2.69474067      -2.75261808       0.01620410       0.00000000
