10
Lattice="16.28999089631971 0.0 0.0 0.0 16.28999089631971 0.0 0.0 0.0 34.185847837958455" Properties=species:S:1:pos:R:3:initial_magmoms:R:1 pbc="T T T"
Si      -0.04665456       0.14305878       2.36234596       0.00000000
Si      -0.57726873       2.07391248      -1.11148509       0.00000000
Si       1.93572441      -0.74224896      -1.27820956       0.00000000
Si      -1.64392164      -1.80115991      -0.03507470       0.00000000
Si       0.51763104      -1.89541385      -2.76898685       0.00000000
Si      -2.09784249       0.90644076      -2.60185215       0.00000000
Si       2.78715384       1.93580586       0.80634204       0.00000000
Si       1.19982366       2.16966510       2.50763590       0.00000000
Si      -2.37811194       0.66813435       2.56725605       0.00000000
Si      -3.38239044      -0.68572592      -1.23622932       0.00000000
