10
Lattice="16.28999089631971 0.0 0.0 0.0 16.28999089631971 0.0 0.0 0.0 34.185847837958455" Properties=species:S:1:pos:R:3:initial_magmoms:R:1 pbc="T T T"
Si       1.49579667      -1.37311505      -1.09928074       0.00000000
Si       0.37724382       0.23973993       2.27062528       0.00000000
Si      -2.19015792      -0.65225160      -0.58673203       0.00000000
Si       0.51922746       2.33263026      -0.36958341       0.00000000
Si       0.05510907       2.63296899       2.08793601       0.00000000
Si       2.01691377       1.80009387      -2.18751944       0.00000000
Si      -1.47367485       2.96710947      -1.53467194       0.00000000
Si      -3.38362848      -0.51132681       1.37929717       0.00000000
Si       3.48978131      -0.07320726      -1.24621159       0.00000000
Si      -3.01798314       1.15452117      -1.90189652       0.00000000
