10
Lattice="16.28999089631971 0.0 0.0 0.0 16.28999089631971 0.0 0.0 0.0 34.185847837958455" Properties=species:S:1:pos:R:3:initial_magmoms:R:1 pbc="T T T"
Si       1.24710443      -1.74351870       0.85109134       0.00000000
Si      -2.20105593      -0.59768010      -0.53124837       0.00000000
Si       1.06199627       0.61820550      -2.07070633       0.00000000
Si      -0.52921323       1.68524937       1.64068231       0.00000000
Si      -2.52319068       1.79554896      -0.71393765       0.00000000
Si      -0.04790889       2.70910845      -2.20891979       0.00000000
Si      -0.53297622       3.49658334      -0.00536718       0.00000000
Si       1.23384762      -3.28548842      -0.94688014       0.00000000
Si       3.49230626      -1.00479978       1.14703839       0.00000000
Si      -2.57829975      -0.83742003      -2.80187365       0.00000000
