10
Lattice="16.28999089631971 0.0 0.0 0.0 16.28999089631971 0.0 0.0 0.0 34.185847837958455" Properties=species:S:1:pos:R:3:initial_magmoms:R:1 pbc="T T T"
Si      -1.63631421       0.25630686      -1.64266509       0.00000000
Si       1.49921757       1.81074753      -0.12905165       0.00000000
Si      -1.10117142       0.40423635       2.04513530       0.00000000
Si       0.80457939      -2.21964282       0.05965434       0.00000000
Si      -3.16561941      -1.05521733      -0.34749934       0.00000000
Si      -1.41379281       2.66851377       1.77202441       0.00000000
Si       2.90737404      -1.87308936      -1.11924528       0.00000000
Si       0.35557812       3.71511369       0.65130914       0.00000000
Si       3.05295777       1.51842348       1.68690160       0.00000000
Si      -3.10010103      -0.86912037       2.03785371       0.00000000
