10
Lattice="16.28999089631971 0.0 0.0 0.0 16.28999089631971 0.0 0.0 0.0 34.185847837958455" Properties=species:S:1:pos:R:3:initial_magmoms:R:1 pbc="T T T"
Si       1.35412955       1.35900954      -1.35840961       0.00000000
Si       1.35717453      -1.35782037       1.35755496       0.00000000
Si      -1.35842310       1.35731538       1.35714473       0.00000000
Si      -1.35957969      -1.35638685      -1.35854635       0.00000000
Si       0.00180819       2.71461447      -2.70994786       0.00000000
Si       2.71363285      -0.00185706       2.71394760       0.00000000
Si      -0.00270414       2.71458189       2.71401598       0.00000000
Si       2.71400264       2.71459818      -0.00006837       0.00000000
Si       2.71439034      -2.71520091       0.00010256       0.00000000
Si      -2.71539639       2.71463076       0.00037604       0.00000000
