10
Lattice="16.28999089631971 0.0 0.0 0.0 16.28999089631971 0.0 0.0 0.0 34.185847837958455" Properties=species:S:1:pos:R:3:initial_magmoms:R:1 pbc="T T T"
Si       2.20828869      -0.47695491       0.69106730       0.00000000
Si      -1.01432943      -2.13635205      -0.34295262       0.00000000
Si      -0.93822255       0.75583971       2.09467063       0.00000000
Si      -0.03574026       1.58190561      -2.31691295       0.00000000
Si      -3.10267485      -1.59791868       0.57322862       0.00000000
Si       1.83979260      -0.92196513       2.97112788       0.00000000
Si      -1.52673138       3.02642136       1.52653570       0.00000000
Si      -2.29842126      -1.10011257       2.70731555       0.00000000
Si       0.18197559      -3.87239364       0.67735877       0.00000000
Si      -3.89241405       0.65313126       0.20668775       0.00000000
