10
Lattice="16.28999089631971 0.0 0.0 0.0 16.28999089631971 0.0 0.0 0.0 34.185847837958455" Properties=species:S:1:pos:R:3:initial_magmoms:R:1 pbc="T T T"
Si       1.33151202       1.36246302      -1.37292835       0.00000000
Si      -1.35961227       1.35292060       1.36117866       0.00000000
Si       1.35648459      -1.36334268       1.36056332       0.00000000
Si      -1.37060802      -1.37026593      -1.37765967       0.00000000
Si       2.50621650      -0.20281050      -2.69365829       0.00000000
Si      -2.71712313       2.71315067       0.00533300       0.00000000
Si      -2.71438641      -2.71591767       0.00293998       0.00000000
Si       2.71811682       2.71260984       0.00458091       0.00000000
Si      -0.00122175       2.71205435       2.71900711       0.00000000
Si       2.71383255      -0.00335574       2.71904130       0.00000000
