10
Lattice="16.28999089631971 0.0 0.0 0.0 16.28999089631971 0.0 0.0 0.0 34.185847837958455" Properties=species:S:1:pos:R:3:initial_magmoms:R:1 pbc="T T T"
Si      -1.17470448       1.56527352       1.32072995       0.00000000
Si       1.55475018      -1.19092932       1.32568348       0.00000000
Si       1.84789592       1.04109390      -1.21498588       0.00000000
Si      -1.60578675      -0.82228662      -1.67298594       0.00000000
Si      -0.41673078       0.71055351      -3.49963937       0.00000000
Si      -2.52095895      -2.58931179      -0.07015965       0.00000000
Si       0.48109257       2.59483151      -2.50219833       0.00000000
Si      -2.50621650       0.20281050       2.69365829       0.00000000
Si       0.21046680      -2.51546922       2.70264918       0.00000000
Si       2.80841785      -2.66918166      -0.16811584       0.00000000
