10
Lattice="16.28999089631971 0.0 0.0 0.0 16.28999089631971 0.0 0.0 0.0 34.185847837958455" Properties=species:S:1:pos:R:3:initial_magmoms:R:1 pbc="T T T"
Si      -1.34428338      -1.32453990       1.37696570       0.00000000
Si      -1.55475018       1.19092932      -1.32568348       0.00000000
Si       1.36730508       1.39246920       1.36794063       0.00000000
Si       1.25366767      -1.47825234      -1.49379932       0.00000000
Si       0.29314574       2.23202322      -2.54066936       0.00000000
Si       2.19093074       0.45160767      -2.56368602       0.00000000
Si      -2.67173919      -2.69140122      -0.00559623       0.00000000
Si       2.72030687      -2.67603975      -0.00213320       0.00000000
Si       0.00803798      -2.68014483       2.72850395       0.00000000
Si      -2.70448209       0.03039714       2.72853813       0.00000000
