10
Lattice="16.28999089631971 0.0 0.0 0.0 16.28999089631971 0.0 0.0 0.0 34.185847837958455" Properties=species:S:1:pos:R:3:initial_magmoms:R:1 pbc="T T T"
Si       1.36019871      -1.35493704      -1.35157244       0.00000000
Si      -1.35700587      -1.35492075       1.35875147       0.00000000
Si       1.35734796       1.35998694       1.35847798       0.00000000
Si      -1.35648459       1.36334268      -1.36056332       0.00000000
Si       2.71252007      -2.71054197      -0.00003419       0.00000000
Si      -0.00003258      -2.71223613       2.71552015       0.00000000
Si      -2.71570590      -2.71292031       0.00047860       0.00000000
Si       2.71264319       2.71689607       0.00164092       0.00000000
Si      -2.71505430       0.00307881       2.71552015       0.00000000
Si       2.71528060       0.00289962       2.71579364       0.00000000
