10
Lattice="16.28999089631971 0.0 0.0 0.0 16.28999089631971 0.0 0.0 0.0 34.185847837958455" Properties=species:S:1:pos:R:3:initial_magmoms:R:1 pbc="T T T"
Si      -1.21801959       1.49802744      -1.33851343       0.00000000
Si       1.41809337       1.15316488       1.49077729       0.00000000
Si       1.50011352      -1.22795649      -1.34661548       0.00000000
Si      -1.13886648      -1.57905486       1.47125716       0.00000000
Si      -0.51763104       1.89541385       2.76898685       0.00000000
Si      -2.16155268       0.09425394       2.73391215       0.00000000
Si       2.18991357      -0.82016892       2.65819046       0.00000000
Si      -2.55466296       0.12852810      -2.70184581       0.00000000
Si       0.16024473      -2.58939324      -2.70608486       0.00000000
Si       2.72386719       2.65441382       0.04338187       0.00000000
