10
Lattice="16.28999089631971 0.0 0.0 0.0 16.28999089631971 0.0 0.0 0.0 34.185847837958455" Properties=species:S:1:pos:R:3:initial_magmoms:R:1 pbc="T T T"
Si      -0.39680811      -0.77501304      -2.14304363       0.00000000
Si       1.00410813       2.01970655      -0.71318556       0.00000000
Si      -1.88419914       0.33517882       1.43385782       0.00000000
Si       1.83953426      -1.14126111       1.05142052       0.00000000
Si      -1.16862831       1.19832076      -3.31045680       0.00000000
Si       2.23365941       2.74501880       1.12273224       0.00000000
Si      -0.96071904       1.18409634       3.43376522       0.00000000
Si      -3.15100728       2.08362851       0.33009873       0.00000000
Si       1.85826613      -3.35437164       0.31047604       0.00000000
Si      -1.99220184      -2.81399976      -1.86668508       0.00000000
