10
Lattice="16.28999089631971 0.0 0.0 0.0 16.28999089631971 0.0 0.0 0.0 34.185847837958455" Properties=species:S:1:pos:R:3:initial_magmoms:R:1 pbc="T T T"
Si       1.09437849      -1.21217148      -1.69124321       0.00000000
Si       0.57961449      -0.32255829       2.26895017       0.00000000
Si      -2.17394285      -0.92251899       0.21407190       0.00000000
Si      -0.32247684       2.18523834      -0.99884266       0.00000000
Si      -2.35353359       0.67489470       1.87526573       0.00000000
Si       0.58727079       0.25383078      -3.59351578       0.00000000
Si       0.18303444      -2.59986771       2.61450092       0.00000000
Si       3.39723063      -1.44541170      -0.94646991       0.00000000
Si      -1.25261792       3.55649796       0.72692827       0.00000000
Si      -1.22379114       1.83699072      -3.19955784       0.00000000
