10
Lattice="16.28999089631971 0.0 0.0 0.0 16.28999089631971 0.0 0.0 0.0 34.185847837958455" Properties=species:S:1:pos:R:3:initial_magmoms:R:1 pbc="T T T"
Si       0.90163195      -1.63172043      -1.40996190       0.00000000
Si       1.21907518       2.14513236       0.03322866       0.00000000
Si       0.21626767      -1.24069527       2.24491751       0.00000000
Si      -1.90800927       1.28715435      -1.24269045       0.00000000
Si       1.89597355       0.19051155      -2.61904764       0.00000000
Si       0.72544909       2.13429951       2.40983013       0.00000000
Si      -0.88098993       0.61581087       3.24064926       0.00000000
Si       3.15866032       1.55538549      -1.13709031       0.00000000
Si      -0.84142854      -2.59072902      -2.68933378       0.00000000
Si      -0.93826557      -3.30283008       2.10403755       0.00000000
