10
Lattice="16.28999089631971 0.0 0.0 0.0 16.28999089631971 0.0 0.0 0.0 34.185847837958455" Properties=species:S:1:pos:R:3:initial_magmoms:R:1 pbc="T T T"
Si      -1.10118771       1.77215652       1.04294243       0.00000000
Si       0.50393115       0.41080122      -2.27951361       0.00000000
Si       2.07967914      -0.70187094       0.93050511       0.00000000
Si      -1.88533944      -1.55090574       0.06392757       0.00000000
Si      -0.92670552       0.88396056       3.21524916       0.00000000
Si      -3.07707416       1.79186742      -0.15998986       0.00000000
Si       2.15080128      -1.30240179      -2.72222058       0.00000000
Si       2.77526214      -2.40235146      -0.56639144       0.00000000
Si      -1.61132046       0.38037150      -3.43578219       0.00000000
Si       3.62639835       1.09037115       0.73650032       0.00000000
