10
Lattice="16.28999089631971 0.0 0.0 0.0 16.28999089631971 0.0 0.0 0.0 34.185847837958455" Properties=species:S:1:pos:R:3:initial_magmoms:R:1 pbc="T T T"
Si       1.35210258       1.32851466       1.34846152       0.00000000
Si       1.35542574      -1.35996739      -1.35700799       0.00000000
Si      -1.35825857       1.35615879      -1.35840961       0.00000000
Si      -1.33892723      -1.37272246       1.38777527       0.00000000
Si      -0.10573839       2.60144784       2.60947560       0.00000000
Si      -2.71129488       2.71135647       0.00167511       0.00000000
Si      -0.00032580       2.71404432      -2.71449458       0.00000000
Si       2.71482624      -0.00127062      -2.71442621       0.00000000
Si       2.71412577      -2.71559906       0.00287161       0.00000000
Si      -2.71525087      -0.00066789      -2.71469969       0.00000000
