10
Lattice="16.28999089631971 0.0 0.0 0.0 16.28999089631971 0.0 0.0 0.0 34.185847837958455" Properties=species:S:1:pos:R:3:initial_magmoms:R:1 pbc="T T T"
Si       1.03149583       0.61396263      -2.02462378       0.00000000
Si       0.45274797      -2.27439351       0.47822609       0.00000000
Si       0.01325680       1.54196972       1.79797149       0.00000000
Si      -1.68317469      -0.68048217      -1.57719916       0.00000000
Si       0.14579061      -1.37577195      -2.97567460       0.00000000
Si      -1.23384762       3.28548842       0.94688014       0.00000000
Si       1.05651727      -3.12191334      -1.67767142       0.00000000
Si      -1.64842812      -3.15667620       1.17469476       0.00000000
Si       2.25845863       2.28068864       2.09391854       0.00000000
Si       3.28712326       1.00518327      -1.71609633       0.00000000
