10
Lattice="16.28999089631971 0.0 0.0 0.0 16.28999089631971 0.0 0.0 0.0 34.56409401068381" Properties=species:S:1:pos:R:3:initial_magmoms:R:1 pbc="T T T"
Si       0.91274499       0.42380064      -2.13246754       0.00000000
Si       2.04784848      -0.86750766       0.82321349       0.00000000
Si      -2.13331301      -1.10332170      -0.18802878       0.00000000
Si      -0.05928583       2.31318000       0.71758556       0.00000000
Si      -2.02094459       2.17153845       1.92370029       0.00000000
Si      -0.66560614       1.90068462      -3.01049971       0.00000000
Si      -3.35398787       0.23221395       1.50882724       0.00000000
Si       2.75625171       1.85547987      -1.62454789       0.00000000
Si      -2.40134867      -1.29640707      -2.56393136       0.00000000
Si      -0.86205540       3.44995389      -1.23200326       0.00000000
