10
Lattice="16.28999089631971 0.0 0.0 0.0 16.28999089631971 0.0 0.0 0.0 34.56409401068381" Properties=species:S:1:pos:R:3:initial_magmoms:R:1 pbc="T T T"
Si      -1.35226548       1.35457540       1.36206801       0.00000000
Si       1.36283769      -1.36033042       1.35919919       0.00000000
Si      -1.34224713      -1.35879501      -1.38146539       0.00000000
Si       1.35454608       1.36377925      -1.36541036       0.00000000
Si       2.58792714      -0.13881361      -2.69529228       0.00000000
Si      -2.70794371       2.71022920       0.00114062       0.00000000
Si      -2.70946194      -0.00227734       2.71815644       0.00000000
Si      -2.71085311      -2.71900692       0.00228123       0.00000000
Si       0.00504990       2.71226545       2.71822556       0.00000000
Si       0.00527796      -2.71770372       2.71787992       0.00000000
