10
Lattice="16.28999089631971 0.0 0.0 0.0 16.28999089631971 0.0 0.0 0.0 34.56409401068381" Properties=species:S:1:pos:R:3:initial_magmoms:R:1 pbc="T T T"
Si       0.67430826      -1.26006734      -1.81029544       0.00000000
Si      -1.10998431      -1.41137032       1.45172732       0.00000000
Si       2.02429314       0.46600314       1.11884035       0.00000000
Si      -1.75428639       1.17750147      -1.10715768       0.00000000
Si      -2.04794622       0.33488493       2.84870509       0.00000000
Si      -0.41852268       2.04429237      -2.85682766       0.00000000
Si      -1.20834333      -2.58570748      -2.13789410       0.00000000
Si      -2.27918277      -2.86237684      -0.02260493       0.00000000
Si       3.66544548      -0.56861711      -0.33738031       0.00000000
Si       2.61278568      -2.46457504      -1.23428449       0.00000000
