10
Lattice="16.28999089631971 0.0 0.0 0.0 16.28999089631971 0.0 0.0 0.0 34.56409401068381" Properties=species:S:1:pos:R:3:initial_magmoms:R:1 pbc="T T T"
Si      -1.55061252       1.14451585       1.30621241       0.00000000
Si      -0.45056511      -0.24982344      -2.29605948       0.00000000
Si       1.76005305       1.21633846       0.99710554       0.00000000
Si       0.54960831      -2.17790199       0.79079235       0.00000000
Si       0.31226301       1.69427077       2.81963667       0.00000000
Si       2.40111342      -2.28893463      -0.80216394       0.00000000
Si       1.75835889       2.85666001      -0.67465693       0.00000000
Si       1.51104411      -1.43022357      -2.80487780       0.00000000
Si      -2.29671081      -1.69578315      -2.07156557       0.00000000
Si      -3.25021338      -0.49609566       1.50371175       0.00000000
