10
Lattice="16.28999089631971 0.0 0.0 0.0 16.28999089631971 0.0 0.0 0.0 34.56409401068381" Properties=species:S:1:pos:R:3:initial_magmoms:R:1 pbc="T T T"
Si       1.81416843       1.16769001      -0.95666553       0.00000000
Si       0.81635706      -0.85134865       2.04657571       0.00000000
Si      -1.85278225       1.08229294       1.02465314       0.00000000
Si      -0.25141986      -1.99358716      -1.31312523       0.00000000
Si       0.82005489       3.00800389      -1.97309241       0.00000000
Si      -0.85413357       2.19348760       2.88309638       0.00000000
Si      -0.40218381      -2.80219018       2.48433021       0.00000000
Si       2.89364157      -1.84961614       1.56029320       0.00000000
Si      -0.24276987      -3.78310882       0.26175403       0.00000000
Si      -3.41986463      -0.63221557       1.62575763       0.00000000
