10
Lattice="16.28999089631971 0.0 0.0 0.0 16.28999089631971 0.0 0.0 0.0 34.56409401068381" Properties=species:S:1:pos:R:3:initial_magmoms:R:1 pbc="T T T"
Si       1.35671265       1.35749457      -1.37202248       0.00000000
Si      -1.36172997      -1.35418770      -1.37267920       0.00000000
Si       1.37826432      -1.44192564       1.33396739       0.00000000
Si      -1.24611984       1.51606143       1.39210423       0.00000000
Si       2.55432087       0.17705601       2.41910773       0.00000000
Si      -2.70837540       0.09427023       2.63585928       0.00000000
Si      -2.70080055       2.71124244      -0.02194821       0.00000000
Si      -2.71235016      -2.71541268      -0.01106052       0.00000000
Si       2.72979675      -2.70594819      -0.03394196       0.00000000
Si      -0.00203625      -2.71197549      -2.73208577       0.00000000
