10
Lattice="16.28999089631971 0.0 0.0 0.0 16.28999089631971 0.0 0.0 0.0 34.56409401068381" Properties=species:S:1:pos:R:3:initial_magmoms:R:1 pbc="T T T"
Si       0.08962758      -2.17693044       0.71264289       0.00000000
Si      -1.82545740       0.53612019      -1.42210588       0.00000000
Si      -0.58854141       0.37510983       2.27224481       0.00000000
Si       1.93274334       1.39344660      -0.09622649       0.00000000
Si       1.66508235       1.41102351       2.28067845       0.00000000
Si       1.24812351      -2.71445157      -1.35028165       0.00000000
Si      -0.36320184       1.95791139      -2.66586093       0.00000000
Si       1.00672200       3.33467703      -1.06298474       0.00000000
Si       2.26118232      -1.00007568      -2.72399777       0.00000000
Si       3.43723887       0.61890597      -1.63885743       0.00000000
