10
Lattice="16.28999089631971 0.0 0.0 0.0 16.28999089631971 0.0 0.0 0.0 34.56409401068381" Properties=species:S:1:pos:R:3:initial_magmoms:R:1 pbc="T T T"
Si       0.77699879      -1.90800372       1.11790712       0.00000000
Si       2.09561565       1.07707851      -0.10818567       0.00000000
Si      -0.60726092      -0.62022546      -2.24016931       0.00000000
Si      -1.91041205       0.99947295       1.08458731       0.00000000
Si       1.27960556       3.18050847      -0.53042088       0.00000000
Si       1.77564747      -0.79680906       2.97635036       0.00000000
Si      -2.23699397      -0.53844966       2.84835945       0.00000000
Si       2.83034352       1.19006595       2.15251472       0.00000000
Si      -0.43993004       1.51378083      -3.46180333       0.00000000
Si      -2.37005069      -2.49580719      -1.81869452       0.00000000
