10
Lattice="16.28999089631971 0.0 0.0 0.0 16.28999089631971 0.0 0.0 0.0 34.56409401068381" Properties=species:S:1:pos:R:3:initial_magmoms:R:1 pbc="T T T"
Si      -1.17426465       1.37529954       1.55369146       0.00000000
Si      -1.12686075       0.27013707      -2.08556403       0.00000000
Si      -0.59644206      -2.29113963       0.46039399       0.00000000
Si       2.24178093       0.85530645       0.32559395       0.00000000
Si       2.47782303      -0.72778833       2.03866053       0.00000000
Si      -1.82912265       3.16545651       0.05665058       0.00000000
Si      -0.30278223      -1.44852309      -3.49546878       0.00000000
Si       1.45150416      -2.62602456      -2.38831110       0.00000000
Si      -0.12390174       2.03406714      -3.25863548       0.00000000
Si      -2.86976043      -2.79960266      -0.17921493       0.00000000
