10
Lattice="16.28999089631971 0.0 0.0 0.0 16.28999089631971 0.0 0.0 0.0 34.56409401068381" Properties=species:S:1:pos:R:3:initial_magmoms:R:1 pbc="T T T"
Si       2.09855925       1.02250701      -0.07946290       0.00000000
Si       0.36461907      -1.98206946      -1.22692233       0.00000000
Si       0.00490329      -0.96114258       2.15666242       0.00000000
Si      -1.51941717       1.82438226      -0.22687884       0.00000000
Si       3.36816927      -0.81550998       0.78806178       0.00000000
Si      -0.32589774       1.02193686       3.40736486       0.00000000
Si      -1.94593824       2.14874874       2.11439050       0.00000000
Si       1.96849989      -2.31565608       1.91340019       0.00000000
Si      -1.78222374      -2.55982689      -1.90507023       0.00000000
Si      -3.35875691       0.89267571      -1.36842781       0.00000000
