10
Lattice="16.28999089631971 0.0 0.0 0.0 16.28999089631971 0.0 0.0 0.0 34.56409401068381" Properties=species:S:1:pos:R:3:initial_magmoms:R:1 pbc="T T T"
Si       2.08992555      -0.66932352      -1.01117314       0.00000000
Si      -0.88757694      -2.12245668       0.74136567       0.00000000
Si      -1.88641458       0.80990622      -1.44263696       0.00000000
Si       0.13818807       1.45701018       2.19523597       0.00000000
Si      -2.49109938      -1.14701148       2.27086225       0.00000000
Si      -1.37914398       3.04421004       1.40192044       0.00000000
Si      -1.86505839       3.11562540      -0.84637144       0.00000000
Si       2.57054571       1.11869946      -2.48827052       0.00000000
Si      -3.22871058      -2.08446840       0.15111430       0.00000000
Si      -1.14564312       0.24865056       3.74131092       0.00000000
