10
Lattice="16.28999089631971 0.0 0.0 0.0 16.28999089631971 0.0 0.0 0.0 34.56409401068381" Properties=species:S:1:pos:R:3:initial_magmoms:R:1 pbc="T T T"
Si      -1.64149443      -1.24388811      -1.11418387       0.00000000
Si       1.23448878      -1.45868805       1.44353563       0.00000000
Si      -1.47488031       1.26349818       1.43978197       0.00000000
Si       1.09700118       1.52281593      -1.63805697       0.00000000
Si       2.45529396       2.48347959       0.12595509       0.00000000
Si      -0.47382723      -2.89245240      -2.25367839       0.00000000
Si       2.59401960      -0.09971109       2.82484203       0.00000000
Si      -0.13263318       2.62229319       2.82124736       0.00000000
Si       2.42274654      -3.03428943       0.02720196       0.00000000
Si      -2.82389756       2.67339330       0.01556768       0.00000000
