10
Lattice="16.28999089631971 0.0 0.0 0.0 16.28999089631971 0.0 0.0 0.0 34.56409401068381" Properties=species:S:1:pos:R:3:initial_magmoms:R:1 pbc="T T T"
Si       1.35568864       1.35814617       1.35736729       0.00000000
Si       1.35761900      -1.35680387      -1.35729817       0.00000000
Si      -1.35744737       1.35754344      -1.35715991       0.00000000
Si      -1.35832703      -1.35784969       1.35774750       0.00000000
Si      -0.00103423       2.71428867       2.71186577       0.00000000
Si       2.71481547       0.00004887      -2.71338659       0.00000000
Si      -2.71319891       0.00004887       2.71542587       0.00000000
Si       0.00241225      -2.71478176       2.71421613       0.00000000
Si      -2.71539806      -0.00003258      -2.71362854       0.00000000
Si      -2.71486049      -2.71434092      -0.00024195       0.00000000
