10
Lattice="16.28999089631971 0.0 0.0 0.0 16.28999089631971 0.0 0.0 0.0 34.56409401068381" Properties=species:S:1:pos:R:3:initial_magmoms:R:1 pbc="T T T"
Si       1.34420193       1.34177472      -1.39798013       0.00000000
Si      -1.37378457      -1.37202525      -1.39590628       0.00000000
Si      -1.16054847       1.48569687       1.56153751       0.00000000
Si       1.47795912      -1.25941248       1.52431196       0.00000000
Si      -2.45286675      -0.04059468       2.86246161       0.00000000
Si       2.69581581      -2.70674640      -0.02851539       0.00000000
Si       2.69539227       2.71054197      -0.02087672       0.00000000
Si      -2.71912680       2.69464293      -0.00663631       0.00000000
Si      -2.71233387      -2.73277782      -0.04617766       0.00000000
Si      -0.01405827       2.70238068      -2.75617696       0.00000000
