10
Lattice="16.28999089631971 0.0 0.0 0.0 16.28999089631971 0.0 0.0 0.0 34.56409401068381" Properties=species:S:1:pos:R:3:initial_magmoms:R:1 pbc="T T T"
Si       1.84614570       1.44595971      -0.22449392       0.00000000
Si      -0.61509411      -0.75649131       2.16637493       0.00000000
Si       0.87993693      -1.81200186      -1.33317242       0.00000000
Si      -1.76836095       1.37302613      -0.91677854       0.00000000
Si       2.29671081       1.69578315       2.07156557       0.00000000
Si       1.36844145       2.43360287      -2.38302279       0.00000000
Si      -2.45860083      -2.18817054       1.65845529       0.00000000
Si      -0.90487692       1.92513984      -3.02263171       0.00000000
Si       3.80775492       0.26555958      -0.73331223       0.00000000
Si      -0.95350257       1.19968749       3.57527732       0.00000000
