10
Lattice="16.28999089631971 0.0 0.0 0.0 16.28999089631971 0.0 0.0 0.0 34.56409401068381" Properties=species:S:1:pos:R:3:initial_magmoms:R:1 pbc="T T T"
Si       1.35457866      -1.35172641       1.35826596       0.00000000
Si      -1.35521397       1.35400525       1.36172237       0.00000000
Si       1.35624024       1.35866419      -1.35729817       0.00000000
Si      -1.35887922      -1.35623648      -1.35709078       0.00000000
Si       0.01550808       2.72357071       2.69890423       0.00000000
Si       2.71283886      -2.71516248       0.00041477       0.00000000
Si       2.71446786       0.00105233      -2.71425069       0.00000000
Si      -0.00102627      -2.71447830      -2.71438895       0.00000000
Si       2.69728191       0.00352678       2.73198208       0.00000000
Si      -2.71581993       0.00099043      -2.71459633       0.00000000
