10
Lattice="16.28999089631971 0.0 0.0 0.0 16.28999089631971 0.0 0.0 0.0 34.56409401068381" Properties=species:S:1:pos:R:3:initial_magmoms:R:1 pbc="T T T"
Si       1.38263004      -1.93592966      -0.29562686       0.00000000
Si      -2.31318000      -0.58501300       0.48604056       0.00000000
Si       1.30587156       2.26330002      -0.00027651       0.00000000
Si      -1.69979634      -0.25656750      -2.03817663       0.00000000
Si       1.68340860      -0.02143764       2.08635901       0.00000000
Si       2.18934342       1.40046759      -2.06199131       0.00000000
Si       0.22701744       0.70446105      -3.44268938       0.00000000
Si       3.42015066      -1.18495089       0.88459935       0.00000000
Si      -3.11570685       1.37761272       1.52261832       0.00000000
Si      -2.02287591      -1.92674699       2.56915054       0.00000000
