10
Lattice="16.28999089631971 0.0 0.0 0.0 16.28999089631971 0.0 0.0 0.0 34.56409401068381" Properties=species:S:1:pos:R:3:initial_magmoms:R:1 pbc="T T T"
Si       1.95602175      -0.30910764       1.24987290       0.00000000
Si      -1.05265980      -1.89595793      -0.89690418       0.00000000
Si       0.71514729       1.21385912      -1.95570666       0.00000000
Si      -1.64115234       1.03462025       1.45622066       0.00000000
Si      -2.99113722      -0.69145023      -1.47291513       0.00000000
Si       1.51480710      -3.02633732       0.94242511       0.00000000
Si       2.58494607       2.00770340       1.50958765       0.00000000
Si      -3.66544548       0.56861711       0.33738031       0.00000000
Si      -1.05412590       3.28218413       1.72433449       0.00000000
Si       2.45188935       0.05034587      -3.15746632       0.00000000
