10
Lattice="16.28999089631971 0.0 0.0 0.0 16.28999089631971 0.0 0.0 0.0 34.56409401068381" Properties=species:S:1:pos:R:3:initial_magmoms:R:1 pbc="T T T"
Si       1.92906180      -1.16359521       0.72014330       0.00000000
Si       0.46025766       0.96644351      -2.11221297       0.00000000
Si      -0.47998485       1.27989732       1.95162809       0.00000000
Si      -1.99124073      -1.31714475      -0.09909531       0.00000000
Si       3.15250596       0.84160998       1.12596056       0.00000000
Si      -0.86599269      -3.32058669      -0.39748730       0.00000000
Si      -2.88131004      -0.45843369      -2.10180917       0.00000000
Si       0.98433954      -2.36380983       2.55024397       0.00000000
Si      -1.57753989       1.20120521      -3.17537053       0.00000000
Si      -0.47234484      -0.55472388       3.68978823       0.00000000
