10
Lattice="16.28999089631971 0.0 0.0 0.0 16.28999089631971 0.0 0.0 0.0 34.56409401068381" Properties=species:S:1:pos:R:3:initial_magmoms:R:1 pbc="T T T"
Si      -0.99631269       1.70582038       1.57093895       0.00000000
Si       1.98478989      -1.17253791       1.24472285       0.00000000
Si       0.29804184      -0.83722455      -2.65804944       0.00000000
Si      -1.53746649       1.91961034      -1.60743865       0.00000000
Si      -1.93610885      -0.02196055       2.89834749       0.00000000
Si       1.99764270       0.80338696      -2.85554879       0.00000000
Si      -2.17908724      -2.33570322      -1.72481838       0.00000000
Si      -1.37409408       0.49361632      -3.56476983       0.00000000
Si      -3.41590616      -1.23935949       1.44301717       0.00000000
Si       3.96961236      -0.62866205      -0.07880618       0.00000000
