10
Lattice="16.28999089631971 0.0 0.0 0.0 16.28999089631971 0.0 0.0 0.0 34.56409401068381" Properties=species:S:1:pos:R:3:initial_magmoms:R:1 pbc="T T T"
Si       1.33832124      -1.19791773       1.46673161       0.00000000
Si       1.81499922       0.89458164      -1.23360665       0.00000000
Si      -0.67005657      -1.76002047      -1.53577139       0.00000000
Si      -1.37687967       1.51008300       1.42973072       0.00000000
Si       0.69942744       0.41456421      -3.30196301       0.00000000
Si      -2.57600286      -2.47309893      -0.12221870       0.00000000
Si       2.55557520      -2.59123401       0.01495244       0.00000000
Si      -0.01729998      -2.54228256       2.81569291       0.00000000
Si       3.47242527      -0.85356342      -1.39896663       0.00000000
Si       2.69410536       2.79958311      -0.03420810       0.00000000
