10
Lattice="16.28999089631971 0.0 0.0 0.0 16.28999089631971 0.0 0.0 0.0 34.56409401068381" Properties=species:S:1:pos:R:3:initial_magmoms:R:1 pbc="T T T"
Si       1.36273995      -1.27119015       1.47728749       0.00000000
Si      -0.87910614      -1.90500147      -1.19939855       0.00000000
Si       1.80654471       1.04967873      -1.26155008       0.00000000
Si      -1.34426709       1.43407386       1.47321583       0.00000000
Si       3.37823649      -0.66811806      -0.92141601       0.00000000
Si       2.63529846      -2.67685425      -0.00530905       0.00000000
Si      -2.69307909       2.73551454       0.05462858       0.00000000
Si       0.00050499      -2.62580139       2.85035034       0.00000000
Si      -2.69410536      -2.79958311       0.03420810       0.00000000
Si      -2.71427238       0.08821035       2.84229691       0.00000000
