10
Lattice="16.28999089631971 0.0 0.0 0.0 16.28999089631971 0.0 0.0 0.0 34.56409401068381" Properties=species:S:1:pos:R:3:initial_magmoms:R:1 pbc="T T T"
Si      -1.35656604      -1.35654975       1.35771294       0.00000000
Si      -1.35744570       1.35711990      -1.35681427       0.00000000
Si       1.35739683      -1.35824391      -1.35767837       0.00000000
Si       1.35876519       1.35798327       1.35681427       0.00000000
Si       2.71233387       0.00027693       2.71535674       0.00000000
Si      -0.00009774       2.71158453       2.71646279       0.00000000
Si      -2.71393029      -0.00057015      -2.71470002       0.00000000
Si       2.71482624       2.71420722       0.00010369       0.00000000
Si       2.71476108      -0.00270414      -2.71452720       0.00000000
Si      -0.00164529       2.71572219      -2.71383592       0.00000000
