10
Lattice="16.28999089631971 0.0 0.0 0.0 16.28999089631971 0.0 0.0 0.0 34.56409401068381" Properties=species:S:1:pos:R:3:initial_magmoms:R:1 pbc="T T T"
Si      -1.36081773      -1.33721352       1.37057079       0.00000000
Si      -1.35356868       1.35770634      -1.35854247       0.00000000
Si       1.35951453      -1.35786924      -1.35830053       0.00000000
Si       1.35633798       1.36462959       1.35543170       0.00000000
Si       2.65988007      -0.05838336       2.68946822       0.00000000
Si       0.02805138      -2.62601316       2.72434341       0.00000000
Si      -2.71243161       2.71130760       0.00110605       0.00000000
Si      -2.71233387      -0.00027693      -2.71535674       0.00000000
Si      -2.71145421      -2.71699281       0.00283426       0.00000000
Si       0.00249237       2.71393029      -2.71525305       0.00000000
