10
Lattice="16.28999089631971 0.0 0.0 0.0 16.28999089631971 0.0 0.0 0.0 34.56409401068381" Properties=species:S:1:pos:R:3:initial_magmoms:R:1 pbc="T T T"
Si       1.47650931       1.23846354       1.37803663       0.00000000
Si      -1.36568844      -1.29178071       1.44643901       0.00000000
Si       1.21785669      -1.44733392      -1.55282736       0.00000000
Si      -1.47795912       1.25941248      -1.52431196       0.00000000
Si       2.63101419       2.65639401      -0.17510180       0.00000000
Si       2.60672580      -2.73613356      -0.19905473       0.00000000
Si      -2.63850759       2.74510935       0.03722555       0.00000000
Si      -2.73561228      -2.66854635      -0.15643718       0.00000000
Si       2.57867442      -0.11012040      -2.92339814       0.00000000
Si      -0.13375719       2.60118720      -2.92229209       0.00000000
