10
Lattice="16.28999089631971 0.0 0.0 0.0 16.28999089631971 0.0 0.0 0.0 34.56409401068381" Properties=species:S:1:pos:R:3:initial_magmoms:R:1 pbc="T T T"
Si       1.34757396       1.35286821       1.37223678       0.00000000
Si      -1.36574546      -1.36161594       1.37216765       0.00000000
Si      -1.46331441       1.21622769      -1.42664760       0.00000000
Si       1.41185430      -1.29396357      -1.47527585       0.00000000
Si      -0.40926996      -2.29296411      -2.76206120       0.00000000
Si      -0.11095119       2.51217864      -2.83495691       0.00000000
Si      -2.32021239      -0.57347316      -2.94345366       0.00000000
Si       2.69674434      -2.70806589       0.00561667       0.00000000
Si       2.72616408       2.69827560      -0.00409585       0.00000000
Si       2.70311373      -0.00340461       2.73226551       0.00000000
