10
Lattice="16.28999089631971 0.0 0.0 0.0 16.28999089631971 0.0 0.0 0.0 34.56409401068381" Properties=species:S:1:pos:R:3:initial_magmoms:R:1 pbc="T T T"
Si       1.35886293      -1.35360126      -1.35964853       0.00000000
Si      -1.35826020       1.36060596      -1.35819683       0.00000000
Si      -1.34420193      -1.34177472       1.39798013       0.00000000
Si       1.35119034       1.36876725       1.37710340       0.00000000
Si       2.71243161      -2.71130760      -0.00110605       0.00000000
Si       0.00009774      -2.71158453      -2.71646279       0.00000000
Si      -2.71513575       0.00322542      -2.71590977       0.00000000
Si       2.71492398       0.00262269      -2.71635910       0.00000000
Si      -2.71798650      -2.71379997       0.00207385       0.00000000
Si      -0.00032580       2.71844053      -2.71618628       0.00000000
