10
Lattice="16.28999089631971 0.0 0.0 0.0 16.28999089631971 0.0 0.0 0.0 34.56409401068381" Properties=species:S:1:pos:R:3:initial_magmoms:R:1 pbc="T T T"
Si      -1.12524804       2.00344194       0.29839199       0.00000000
Si      -1.44467865      -1.46082204      -1.10739963       0.00000000
Si       0.77778234      -0.97997382       1.97416390       0.00000000
Si       1.58203593      -0.35298801      -1.74213500       0.00000000
Si      -0.10336005      -1.24623387      -3.07990445       0.00000000
Si       0.86599269       3.32058669       0.39748730       0.00000000
Si       1.85033223       0.95677686       2.94773128       0.00000000
Si       2.81849580      -2.18357676      -0.83340990       0.00000000
Si       1.81859931      -2.99918448       1.10957717       0.00000000
Si       2.79505449       2.15699148       1.11763060       0.00000000
