10
Lattice="16.28999089631971 0.0 0.0 0.0 16.28999089631971 0.0 0.0 0.0 34.56409401068381" Properties=species:S:1:pos:R:3:initial_magmoms:R:1 pbc="T T T"
Si       0.05686839       0.10391391       2.30087949       0.00000000
Si       0.12585654       2.25969993      -0.67759488       0.00000000
Si       1.08378999      -1.63185075      -1.45221122       0.00000000
Si      -0.81531450       2.15431992      -2.83774827       0.00000000
Si      -2.67418269       0.57443427      -2.42702291       0.00000000
Si       2.55508650       2.80570815      -0.64182102       0.00000000
Si       1.99738206      -3.30572970       0.12252978       0.00000000
Si      -1.60264278      -1.05629247       3.44320235       0.00000000
Si      -0.54952686      -2.83996602      -2.72786895       0.00000000
Si       1.29898089       1.81480374       3.44491327       0.00000000
