10
Lattice="16.28999089631971 0.0 0.0 0.0 16.28999089631971 0.0 0.0 0.0 34.56409401068381" Properties=species:S:1:pos:R:3:initial_magmoms:R:1 pbc="T T T"
Si      -1.35487188       1.35789856       1.35767837       0.00000000
Si      -1.35653346      -1.35649123      -1.35798945       0.00000000
Si       1.35832703       1.35784969      -1.35774750       0.00000000
Si       1.36073928      -1.35693207       1.35646863       0.00000000
Si       0.01107720       2.71018033       2.69952638       0.00000000
Si      -2.71366965       0.00075911      -2.71487285       0.00000000
Si       2.71683058      -2.71236060      -0.00076041       0.00000000
Si       0.00109143      -2.71439685      -2.71514936       0.00000000
Si       2.71401567       2.71599586      -0.00038021       0.00000000
Si       0.00087966       2.71539313      -2.71490741       0.00000000
