10
Lattice="16.28999089631971 0.0 0.0 0.0 16.28999089631971 0.0 0.0 0.0 34.56409401068381" Properties=species:S:1:pos:R:3:initial_magmoms:R:1 pbc="T T T"
Si      -1.41723000       1.25908668       1.33963590       0.00000000
Si       1.34621560       1.36195803      -1.34540811       0.00000000
Si      -1.36594908      -1.35228177      -1.34184801       0.00000000
Si       1.33934751      -1.37266056       1.35363437       0.00000000
Si      -0.40711968      -2.28149595       2.63834790       0.00000000
Si      -2.07635598      -0.50484339       2.82084642       0.00000000
Si       0.03847698       2.52069831       2.69223335       0.00000000
Si       2.70293847       0.00581553      -2.69990658       0.00000000
Si      -0.01107720      -2.71018033      -2.69952638       0.00000000
Si      -0.00983916       2.71984356      -2.70021766       0.00000000
