10
Lattice="16.28999089631971 0.0 0.0 0.0 16.28999089631971 0.0 0.0 0.0 34.56409401068381" Properties=species:S:1:pos:R:3:initial_magmoms:R:1 pbc="T T T"
Si       0.24408936       2.32130871       0.27903609       0.00000000
Si      -0.71514729      -1.21385912       1.95570666       0.00000000
Si       1.73674206      -1.16351325      -1.20175966       0.00000000
Si      -1.68340860       0.02143764      -2.08635901       0.00000000
Si      -0.30077856      -1.91449202      -2.38198587       0.00000000
Si      -0.37753704       2.28473766      -2.08663552       0.00000000
Si       2.19638070       2.33176689       1.70152217       0.00000000
Si      -1.76780709      -3.10981706       1.05880248       0.00000000
Si       1.24087446      -1.52296676       3.20557956       0.00000000
Si      -1.70359191       3.02536251       1.50429934       0.00000000
