10
Lattice="16.28999089631971 0.0 0.0 0.0 16.28999089631971 0.0 0.0 0.0 34.56409401068381" Properties=species:S:1:pos:R:3:initial_magmoms:R:1 pbc="T T T"
Si      -0.09286929       1.92098196       1.36334689       0.00000000
Si       2.02943168      -0.33142005      -1.19488140       0.00000000
Si      -1.98320976      -0.07306065      -1.32287231       0.00000000
Si      -0.83264706      -1.74527313       1.41851121       0.00000000
Si       1.03078300      -1.44261471      -3.05332464       0.00000000
Si      -2.04926571       2.83872798       0.51234385       0.00000000
Si       0.08877892       0.89710659       3.45343882       0.00000000
Si      -3.51406251       1.07189829       0.06491140       0.00000000
Si       0.85954415      -3.36022694       1.39998485       0.00000000
Si      -1.67990625      -0.61426332       3.31818944       0.00000000
