10
Lattice="16.28999089631971 0.0 0.0 0.0 16.28999089631971 0.0 0.0 0.0 34.56409401068381" Properties=species:S:1:pos:R:3:initial_magmoms:R:1 pbc="T T T"
Si      -0.24408936      -2.32130871      -0.27903609       0.00000000
Si      -1.94768127       0.70405380       1.22526325       0.00000000
Si       1.95229134       0.01045818       1.42248608       0.00000000
Si      -0.62162640      -0.03657105      -2.36567161       0.00000000
Si      -1.46091978       2.96510580       1.49040457       0.00000000
Si      -1.92749796      -2.29987107      -2.36539510       0.00000000
Si       1.62570942      -1.52746443       3.18625822       0.00000000
Si      -2.01336255      -0.25298370       3.40100506       0.00000000
Si       3.86270339      -0.98901477       0.33789877       0.00000000
Si      -0.95923665      -3.53516783       1.67667057       0.00000000
