10
Lattice="16.28999089631971 0.0 0.0 0.0 16.28999089631971 0.0 0.0 0.0 34.56409401068381" Properties=species:S:1:pos:R:3:initial_magmoms:R:1 pbc="T T T"
Si       1.46479680       1.76682969       0.44743245       0.00000000
Si       1.53085275      -1.14495894      -1.38778371       0.00000000
Si      -0.19142379      -0.82945422       2.23412059       0.00000000
Si      -2.10821922       0.12952179      -1.17303688       0.00000000
Si       3.51406251      -1.07189829      -0.06491140       0.00000000
Si       1.85743467       0.39296367      -3.15155585       0.00000000
Si       2.18527092       2.34874107      -1.80981154       0.00000000
Si      -0.98660385      -2.99232639       1.92802081       0.00000000
Si      -2.69524566      -2.11804209      -1.44115071       0.00000000
Si       3.42119322       0.84908367       1.29843548       0.00000000
