10
Lattice="16.28999089631971 0.0 0.0 0.0 16.28999089631971 0.0 0.0 0.0 34.56409401068381" Properties=species:S:1:pos:R:3:initial_magmoms:R:1 pbc="T T T"
Si       2.00639043      -1.23061176       0.52872724       0.00000000
Si      -1.84417461      -1.42530984       0.68533724       0.00000000
Si      -0.48801582       0.48376413      -2.39854208       0.00000000
Si      -0.23938155       2.03338296       1.44536753       0.00000000
Si      -3.23424918       0.31793193       1.49030087       0.00000000
Si      -3.15107244       1.75422123      -0.41974659       0.00000000
Si      -2.81843064       0.30030615      -2.29039097       0.00000000
Si      -2.91993363      -1.91876652      -1.37928094       0.00000000
Si      -1.58270382       3.46333545       0.09937183       0.00000000
Si       2.51439250      -2.72290608      -1.26442439       0.00000000
