10
Lattice="16.28999089631971 0.0 0.0 0.0 16.28999089631971 0.0 0.0 0.0 34.56409401068381" Properties=species:S:1:pos:R:3:initial_magmoms:R:1 pbc="T T T"
Si       1.35675224       1.35708732      -1.35709078       0.00000000
Si      -1.35687555       1.35677781       1.35760924       0.00000000
Si      -1.35785295      -1.35847197      -1.35601929       0.00000000
Si       1.35838290      -1.35873261       1.35781663       0.00000000
Si      -2.71423980       2.71406061       0.00000000       0.00000000
Si      -2.71409319       0.00003258      -2.71456177       0.00000000
Si      -0.00182448       2.71666701      -2.71221141       0.00000000
Si      -2.71484253      -0.00063531       2.71431982       0.00000000
Si      -0.00213399      -2.71187775      -2.71729233       0.00000000
Si       2.71520321       2.71459818      -0.00017282       0.00000000
