10
Lattice="16.28999089631971 0.0 0.0 0.0 16.28999089631971 0.0 0.0 0.0 34.56409401068381" Properties=species:S:1:pos:R:3:initial_magmoms:R:1 pbc="T T T"
Si      -1.92906180       1.16359521      -0.72014330       0.00000000
Si      -0.94472226      -1.20021462       1.83010067       0.00000000
Si       1.22344416       2.00520519       0.40581725       0.00000000
Si       1.52485803      -1.21023297      -1.40140197       0.00000000
Si      -2.40904665       2.44349253       1.23148479       0.00000000
Si       3.43846292       1.27758465       0.47027933       0.00000000
Si      -2.79505449      -2.15699148      -1.11763060       0.00000000
Si       0.53380701      -1.12244616      -3.53120807       0.00000000
Si      -2.01727215      -3.13696530       0.85653329       0.00000000
Si      -1.46880414       2.13003872      -2.83235627       0.00000000
