10
Lattice="16.28999089631971 0.0 0.0 0.0 16.28999089631971 0.0 0.0 0.0 34.56409401068381" Properties=species:S:1:pos:R:3:initial_magmoms:R:1 pbc="T T T"
Si       1.57169178      -1.71779679       0.34013407       0.00000000
Si       0.96195708       1.78667091       1.32628175       0.00000000
Si      -1.80654471      -1.04967873       1.26155008       0.00000000
Si       0.10441890       0.12771360      -2.52909074       0.00000000
Si       1.43746218       2.06703810      -2.11421768       0.00000000
Si       2.26618117       0.40203720       2.75417366       0.00000000
Si      -0.44380476      -2.32086888       2.73883757       0.00000000
Si       3.57269415      -0.96855453       1.35991264       0.00000000
Si       2.16230202       3.30502338      -0.15249687       0.00000000
Si      -2.68565085      -2.95468020       0.06215153       0.00000000
