10
Lattice="16.28999089631971 0.0 0.0 0.0 16.28999089631971 0.0 0.0 0.0 34.56409401068381" Properties=species:S:1:pos:R:3:initial_magmoms:R:1 pbc="T T T"
Si       0.94472226       1.20021462      -1.83010067       0.00000000
Si      -1.07254989      -1.93675068      -0.97356738       0.00000000
Si       1.89125271      -0.73994067       1.38100915       0.00000000
Si      -1.45668438       1.80908595       1.13954425       0.00000000
Si      -1.85033223      -0.95677686      -2.94773128       0.00000000
Si      -0.98433954       2.36380983      -2.55024397       0.00000000
Si       3.11192757      -2.07547632      -0.31584687       0.00000000
Si       3.22429599       1.19938383       1.79588220       0.00000000
Si      -2.92798089      -2.62847295       0.32915405       0.00000000
Si      -1.46432439       3.64370715      -0.59861588       0.00000000
