10
Lattice="16.28999089631971 0.0 0.0 0.0 16.28999089631971 0.0 0.0 0.0 34.56409401068381" Properties=species:S:1:pos:R:3:initial_magmoms:R:1 pbc="T T T"
Si      -0.73472787      -0.11298744      -2.26070040       0.00000000
Si      -1.05469605      -1.98687501       0.82383564       0.00000000
Si       2.39389695      -0.27144027      -0.17361554       0.00000000
Si      -0.45520776       2.04612174       1.29045117       0.00000000
Si      -1.55073795       1.99044252      -2.68293560       0.00000000
Si       1.69163505       2.62387917       1.96859907       0.00000000
Si      -2.83034352      -1.19006595      -2.15251472       0.00000000
Si       0.65099727      -3.34118000       1.73273357       0.00000000
Si      -2.05334473      -3.09806967      -1.03460760       0.00000000
Si       3.39685596       1.49248980      -1.34668698       0.00000000
