10
Lattice="16.28999089631971 0.0 0.0 0.0 16.28999089631971 0.0 0.0 0.0 34.56409401068381" Properties=species:S:1:pos:R:3:initial_magmoms:R:1 pbc="T T T"
Si       1.89674896       1.32784677      -0.46239871       0.00000000
Si      -1.70114908       1.68844221       0.21004612       0.00000000
Si      -0.38534353      -1.12964634      -2.10118701       0.00000000
Si       0.72493432      -1.49273415       2.95322697       0.00000000
Si      -1.43311342       1.88152758       2.58594870       0.00000000
Si      -1.32199933      -0.35117982       3.34314473       0.00000000
Si       3.51678946       0.20103489       0.83057564       0.00000000
Si      -2.75056717      -0.92963772      -2.24563044       0.00000000
Si      -3.57687742       0.81665028      -0.87934561       0.00000000
Si       2.32327003       1.00348029      -2.80366805       0.00000000
