10
Lattice="16.28999089631971 0.0 0.0 0.0 16.28999089631971 0.0 0.0 0.0 34.56409401068381" Properties=species:S:1:pos:R:3:initial_magmoms:R:1 pbc="T T T"
Si      -1.35632943      -1.35027810      -1.35662071       0.00000000
Si       1.35782200      -1.35558864       1.35868073       0.00000000
Si      -1.35590371       1.35890359       1.35833509       0.00000000
Si       1.36860598       1.36021191      -1.38374663       0.00000000
Si       2.71515367      -2.70980892      -0.00321446       0.00000000
Si      -2.71628161      -2.71116099       0.00345641       0.00000000
Si      -2.71157380       2.71636632      -0.00006913       0.00000000
Si       0.00074608      -2.71322982       2.71549500       0.00000000
Si      -2.71346344       0.00128691       2.71577151       0.00000000
Si       2.71085311       2.71900692      -0.00228123       0.00000000
