10
Lattice="16.28999089631971 0.0 0.0 0.0 16.28999089631971 0.0 0.0 0.0 34.56409401068381" Properties=species:S:1:pos:R:3:initial_magmoms:R:1 pbc="T T T"
Si       1.35744570      -1.35456237      -1.35895724       0.00000000
Si      -1.35712642       1.36138788      -1.35881899       0.00000000
Si      -1.35411928      -1.34762283       1.38467294       0.00000000
Si       1.36601424       1.35164646       1.39175859       0.00000000
Si       0.16382853      -2.63811663       2.74179829       0.00000000
Si       2.71135647      -2.71502172       0.00248862       0.00000000
Si      -0.00021177      -2.71316466      -2.71559869       0.00000000
Si      -2.71433680      -2.71456560       0.00203928       0.00000000
Si       2.71420722       0.00200367      -2.71549500       0.00000000
Si      -2.71321772       2.71681642      -0.00158995       0.00000000
