10
Lattice="16.28999089631971 0.0 0.0 0.0 16.28999089631971 0.0 0.0 0.0 34.51007289658418" Properties=species:S:1:pos:R:3:initial_magmoms:R:1 pbc="T T T"
Si       1.35390914      -1.35612621       1.35952508       0.00000000
Si       1.34483561       1.35694071      -1.36864955       0.00000000
Si      -1.36040201       1.35786924       1.35741997       0.00000000
Si      -1.37205036      -1.35840681      -1.36487415       0.00000000
Si       2.70682622      -2.70717157      -0.00414121       0.00000000
Si      -2.71491651      -2.70915406      -0.00037961       0.00000000
Si       2.71106162       0.00161271       2.71528856       0.00000000
Si       2.71122452       2.71593396      -0.00213963       0.00000000
Si      -0.00372715      -2.71246582       2.71549562       0.00000000
Si      -0.00298433       2.71603170       2.71508150       0.00000000
