10
Lattice="16.28999089631971 0.0 0.0 0.0 16.28999089631971 0.0 0.0 0.0 34.51007289658418" Properties=species:S:1:pos:R:3:initial_magmoms:R:1 pbc="T T T"
Si      -1.38781240       1.30134294      -1.34830930       0.00000000
Si       1.34511922      -1.43953101      -1.34603164       0.00000000
Si       1.29929056       1.44116001       1.41242905       0.00000000
Si      -1.55247172      -0.99250083       1.57907829       0.00000000
Si       2.14427404      -0.29414853       2.75652812       0.00000000
Si      -0.02315645       2.64681549      -2.71932624       0.00000000
Si      -2.86163386       2.49220710       0.20933822       0.00000000
Si       0.00591848      -1.43011539       3.54021781       0.00000000
Si      -2.56222366      -2.81738808       0.30617354       0.00000000
Si       2.69725438      -0.07185519      -2.71518503       0.00000000
