10
Lattice="16.28999089631971 0.0 0.0 0.0 16.28999089631971 0.0 0.0 0.0 34.51007289658418" Properties=species:S:1:pos:R:3:initial_magmoms:R:1 pbc="T T T"
Si       1.35345465      -1.35610666      -1.35686780       0.00000000
Si       1.36427121       1.35202113       1.35062148       0.00000000
Si      -1.36055709       1.36010097      -1.35545289       0.00000000
Si      -1.37070576      -1.36713336       1.36808358       0.00000000
Si      -0.04271238       2.64960108       2.64116089       0.00000000
Si      -2.54306448       0.09163125       2.82240789       0.00000000
Si       2.71176372      -2.71209671       0.00203610       0.00000000
Si       2.71148679       0.00208512      -2.71373561       0.00000000
Si      -0.00280188      -2.71278831      -2.71383914       0.00000000
Si       2.70940167       2.72060919       0.00100079       0.00000000
