10
Lattice="16.28999089631971 0.0 0.0 0.0 16.28999089631971 0.0 0.0 0.0 34.51007289658418" Properties=species:S:1:pos:R:3:initial_magmoms:R:1 pbc="T T T"
Si      -2.02276188      -0.32955714       1.09983664       0.00000000
Si       0.54560097       2.20822027       0.73209710       0.00000000
Si      -0.77040297      -0.68011794      -2.16554279       0.00000000
Si       1.56138021      -1.66408281       0.74766115       0.00000000
Si      -1.36616085       0.31891585       3.24432828       0.00000000
Si      -0.07687251       3.43391245      -1.19708608       0.00000000
Si       1.96055037      -2.72659806      -1.44511011       0.00000000
Si      -2.75985180      -2.49648552       0.59533360       0.00000000
Si      -0.50973039       2.50637614       2.83710919       0.00000000
Si      -2.44998342      -2.38038669      -1.80587861       0.00000000
