10
Lattice="16.28999089631971 0.0 0.0 0.0 16.28999089631971 0.0 0.0 0.0 34.51007289658418" Properties=species:S:1:pos:R:3:initial_magmoms:R:1 pbc="T T T"
Si      -0.68163876       1.84602190       1.22403846       0.00000000
Si       0.67808754      -1.75671427       1.36987811       0.00000000
Si      -2.13263793      -0.87894976      -0.81181541       0.00000000
Si       2.55081852      -0.12049713      -0.39103385       0.00000000
Si       2.51173881      -2.48862397       0.07982184       0.00000000
Si      -2.29723209       0.55062481      -2.69917235       0.00000000
Si       1.37161800       2.35731613       2.33833483       0.00000000
Si       1.35133695       2.36964766      -2.53614667       0.00000000
Si       3.32030925       1.69058272       1.06715558       0.00000000
Si      -1.55631402       3.54703999      -0.44286801       0.00000000
