10
Lattice="16.28999089631971 0.0 0.0 0.0 16.28999089631971 0.0 0.0 0.0 34.51007289658418" Properties=species:S:1:pos:R:3:initial_magmoms:R:1 pbc="T T T"
Si      -1.37116188      -1.33530759       1.35959410       0.00000000
Si       1.35433431      -1.35405738      -1.36062940       0.00000000
Si      -1.36252818       1.36308204      -1.35859331       0.00000000
Si       1.36966320       1.34877942       1.38599432       0.00000000
Si      -0.08400753       2.61552240       2.74897041       0.00000000
Si       2.70888039      -2.70668124      -0.00255375       0.00000000
Si      -0.04323366      -2.77768935       2.63760635       0.00000000
Si      -0.00327429      -2.71034649      -2.71694505       0.00000000
Si       2.71164969       0.00425169      -2.71659995       0.00000000
Si      -2.72337849      -2.70861975      -0.00031059       0.00000000
