10
Lattice="16.28999089631971 0.0 0.0 0.0 16.28999089631971 0.0 0.0 0.0 34.51007289658418" Properties=species:S:1:pos:R:3:initial_magmoms:R:1 pbc="T T T"
Si      -0.88969464       0.20732283       2.15678383       0.00000000
Si       1.85834691      -1.49851710      -0.06111737       0.00000000
Si      -0.85287924      -0.95105907      -2.04382570       0.00000000
Si       0.82130922       2.36784924       0.26955833       0.00000000
Si      -1.91029572       0.96213627      -2.92666288       0.00000000
Si       0.96117516       1.02250701       3.40670658       0.00000000
Si       2.43647901       2.14311240       1.94426408       0.00000000
Si       1.01631681      -1.47714462      -3.42557528       0.00000000
Si      -2.61967635       2.00337678       2.07200803       0.00000000
Si       3.02047551      -1.33968960      -2.16813105       0.00000000
