10
Lattice="16.28999089631971 0.0 0.0 0.0 16.28999089631971 0.0 0.0 0.0 34.51007289658418" Properties=species:S:1:pos:R:3:initial_magmoms:R:1 pbc="T T T"
Si       1.25216343      -1.36368477      -1.48700536       0.00000000
Si       1.24447455       1.35643572       1.51016163       0.00000000
Si      -1.13844294      -1.60213779       1.46488439       0.00000000
Si      -1.45376847       1.33418358      -1.46502243       0.00000000
Si      -0.57497184       2.39674770       2.64078127       0.00000000
Si       2.53931778       2.58714522      -0.09762905       0.00000000
Si      -2.04662673       0.37595691       2.98519199       0.00000000
Si       2.58009165      -2.80606653      -0.20899312       0.00000000
Si      -2.82128139      -2.64295476      -0.02319078       0.00000000
Si       2.62332531      -0.02837718      -2.84659946       0.00000000
