10
Lattice="16.28999089631971 0.0 0.0 0.0 16.28999089631971 0.0 0.0 0.0 34.51007289658418" Properties=species:S:1:pos:R:3:initial_magmoms:R:1 pbc="T T T"
Si      -0.88343928       1.68660144       1.36642710       0.00000000
Si       2.00902941      -0.60074262       1.15343081       0.00000000
Si      -1.85745096      -1.54522053       0.08465326       0.00000000
Si      -2.61674415       0.21668958      -1.53749363       0.00000000
Si      -1.14508926       2.23748037      -1.88190435       0.00000000
Si       0.67435713       1.19716839      -3.01252399       0.00000000
Si       2.41551378       1.60122555       2.02598398       0.00000000
Si      -0.26088435       3.63985389       0.15315579       0.00000000
Si      -2.88435627       0.83119725       2.33781717       0.00000000
Si       0.45791190       1.89903933       3.29419536       0.00000000
