10
Lattice="16.28999089631971 0.0 0.0 0.0 16.28999089631971 0.0 0.0 0.0 34.51007289658418" Properties=species:S:1:pos:R:3:initial_magmoms:R:1 pbc="T T T"
Si       1.35661491      -1.35448092       1.35876586       0.00000000
Si      -1.35762489      -1.35583299      -1.35728193       0.00000000
Si       1.35685926       1.35871632      -1.35704035       0.00000000
Si      -1.35772263       1.35816246       1.36152667       0.00000000
Si      -2.71427238      -2.71212210       0.00034510       0.00000000
Si       2.71347417      -2.71296918       0.00141491       0.00000000
Si      -0.00003258      -2.71360449      -2.71463287       0.00000000
Si      -2.71497285       0.00086337      -2.71428777       0.00000000
Si       2.71549413       0.00138465      -2.71390816       0.00000000
Si       0.00017919       2.71619460      -2.71397718       0.00000000
