10
Lattice="16.28999089631971 0.0 0.0 0.0 16.28999089631971 0.0 0.0 0.0 34.51007289658418" Properties=species:S:1:pos:R:3:initial_magmoms:R:1 pbc="T T T"
Si       1.34990343       1.34414884       1.36711730       0.00000000
Si      -1.35490446       1.35497029      -1.35817919       0.00000000
Si       1.35949824      -1.35826020      -1.35652270       0.00000000
Si      -1.34120457      -1.35426915       1.38789238       0.00000000
Si      -2.71230129       2.71214558       0.00352003       0.00000000
Si      -2.71270854      -0.00134248      -2.71418424       0.00000000
Si       0.00215028       2.71375829      -2.71459836       0.00000000
Si      -2.71259451      -2.71720458       0.00410670       0.00000000
Si       0.00198738      -2.71665072      -2.71446032       0.00000000
Si       2.72060919       2.71128221      -0.00096628       0.00000000
