10
Lattice="16.28999089631971 0.0 0.0 0.0 16.28999089631971 0.0 0.0 0.0 34.51007289658418" Properties=species:S:1:pos:R:3:initial_magmoms:R:1 pbc="T T T"
Si      -1.35871632       1.35561307       1.36266550       0.00000000
Si       1.35785295      -1.36014746       1.36321766       0.00000000
Si       1.35003375       1.38638488      -1.36415288       0.00000000
Si      -1.35715248      -1.38322723      -1.37580694       0.00000000
Si       2.70229923      -0.01776099      -2.61719363       0.00000000
Si       2.71272483       2.71268411       0.00490043       0.00000000
Si      -2.71280628       2.71302619       0.00158746       0.00000000
Si       2.71339272      -2.71612848       0.00893811       0.00000000
Si      -2.71065600      -2.72124354       0.00697104       0.00000000
Si       2.71407690      -0.00050662       2.71963683       0.00000000
