10
Lattice="16.28999089631971 0.0 0.0 0.0 16.28999089631971 0.0 0.0 0.0 34.51007289658418" Properties=species:S:1:pos:R:3:initial_magmoms:R:1 pbc="T T T"
Si       1.03884588      -0.74590281      -1.96138109       0.00000000
Si       1.60795332      -1.35868374       1.05939081       0.00000000
Si      -2.18988099      -0.90381807      -0.12723871       0.00000000
Si      -0.70336962       2.26732365       0.30448254       0.00000000
Si      -0.86366322      -0.34485930      -3.32760113       0.00000000
Si      -2.81235447       0.32187411      -2.05642188       0.00000000
Si       2.41126209       1.12389597      -2.33923209       0.00000000
Si      -2.58608637       2.48573997      -1.11119046       0.00000000
Si       0.85359600      -3.62533040       0.73465084       0.00000000
Si       2.39057379      -0.08413785       2.97697859       0.00000000
