10
Lattice="16.28999089631971 0.0 0.0 0.0 16.28999089631971 0.0 0.0 0.0 34.51007289658418" Properties=species:S:1:pos:R:3:initial_magmoms:R:1 pbc="T T T"
Si       1.26801360      -1.31186628      -1.63325913       0.00000000
Si      -0.87894324      -2.17080540       0.91997004       0.00000000
Si       1.98788499       0.80316216       1.33512645       0.00000000
Si      -1.41283170       1.37013561      -1.59605725       0.00000000
Si      -0.34582041       0.95395869       2.73571854       0.00000000
Si       2.58290982      -2.66400144      -0.31228182       0.00000000
Si      -2.86650243       2.63687859      -0.23308116       0.00000000
Si       2.81429298       2.71003698       0.04082544       0.00000000
Si       3.68136081      -0.99486288       0.92497400       0.00000000
Si      -2.82572856      -2.75633316      -0.34444523       0.00000000
