10
Lattice="16.28999089631971 0.0 0.0 0.0 16.28999089631971 0.0 0.0 0.0 34.51007289658418" Properties=species:S:1:pos:R:3:initial_magmoms:R:1 pbc="T T T"
Si       2.14739667      -0.68162247       0.41160187       0.00000000
Si      -0.43846164       1.25437887      -1.89898684       0.00000000
Si      -0.87930162      -2.16024948      -0.33826792       0.00000000
Si      -1.43855361       1.23142626       1.48969715       0.00000000
Si      -2.65644288       0.36365796      -2.02857224       0.00000000
Si       2.68439652       1.16506080       1.70600641       0.00000000
Si      -3.11007051       1.70829972      -0.09400549       0.00000000
Si       1.88771778      -2.63277351       1.70245187       0.00000000
Si      -2.26460322      -0.45478422       2.85315638       0.00000000
Si      -2.53850328      -2.29231251       1.38692609       0.00000000
