10
Lattice="16.28999089631971 0.0 0.0 0.0 16.28999089631971 0.0 0.0 0.0 34.51007289658418" Properties=species:S:1:pos:R:3:initial_magmoms:R:1 pbc="T T T"
Si      -1.31377221       1.35576783       1.38872062       0.00000000
Si       1.13208984       1.71347994      -1.20115068       0.00000000
Si       1.41902190      -1.34605899       1.37664554       0.00000000
Si      -1.20101283      -1.60635690      -1.41691333       0.00000000
Si      -2.58172065       2.69333973      -0.10463115       0.00000000
Si       2.82996396      -2.52622062      -0.11914609       0.00000000
Si      -0.59350986       3.51539829      -1.33826483       0.00000000
Si       2.61094491       0.63848655      -2.70679705       0.00000000
Si      -2.67631668      -2.72696229       0.04552916       0.00000000
Si      -2.65140927       0.00415395       2.75202456       0.00000000
