10
Lattice="16.28999089631971 0.0 0.0 0.0 16.28999089631971 0.0 0.0 0.0 34.51007289658418" Properties=species:S:1:pos:R:3:initial_magmoms:R:1 pbc="T T T"
Si      -1.93236867       0.25111035      -1.30717327       0.00000000
Si      -0.36820287       0.11513772       2.33861091       0.00000000
Si       1.55193201       1.80392202      -0.36742895       0.00000000
Si       0.53600616      -2.34473373      -0.11564332       0.00000000
Si       2.27219436      -2.42216010       1.39548460       0.00000000
Si       1.62769680      -0.98837946       3.17889714       0.00000000
Si      -2.33885304      -1.95085782      -2.17972644       0.00000000
Si       3.62284713      -1.15702983      -0.17586343       0.00000000
Si       1.76182866       3.11207418       1.60140632       0.00000000
Si      -3.88997055       0.54892413      -0.03896189       0.00000000
