10
Lattice="16.28999089631971 0.0 0.0 0.0 16.28999089631971 0.0 0.0 0.0 34.51007289658418" Properties=species:S:1:pos:R:3:initial_magmoms:R:1 pbc="T T T"
Si       1.39771458      -0.42415902      -1.94309074       0.00000000
Si       0.21344787      -1.85474682       1.56879428       0.00000000
Si      -2.46295026       0.18388152      -0.30403391       0.00000000
Si       1.18780164       2.01056067       0.87717752       0.00000000
Si       0.29049957       3.32513109      -1.13331143       0.00000000
Si      -3.08550519      -1.76937093       0.90923740       0.00000000
Si      -1.74415401      -1.55693304       2.83700566       0.00000000
Si       3.46455720       1.30495932       0.74417563       0.00000000
Si       3.66476130       0.43746795      -1.46902560       0.00000000
Si       0.69129873       0.71956188      -3.87348177       0.00000000
