10
Lattice="16.28999089631971 0.0 0.0 0.0 16.28999089631971 0.0 0.0 0.0 34.51007289658418" Properties=species:S:1:pos:R:3:initial_magmoms:R:1 pbc="T T T"
Si       1.44267498       1.63616501      -0.91658805       0.00000000
Si       0.79988787      -1.47056346       1.70041577       0.00000000
Si      -1.41685533       1.25303236       1.46308987       0.00000000
Si      -1.19772225      -0.55723203      -2.00707245       0.00000000
Si      -1.48281354      -1.95484887       1.90882222       0.00000000
Si       2.84570010       0.28427679      -2.32615276       0.00000000
Si      -0.10865430       3.42116783      -1.41912401       0.00000000
Si       0.02093265       1.63791293       3.35614097       0.00000000
Si      -1.76785596       3.28910480       0.30607001       0.00000000
Si       1.40297625      -0.30652893       3.63736372       0.00000000
