10
Lattice="16.28999089631971 0.0 0.0 0.0 16.28999089631971 0.0 0.0 0.0 34.51007289658418" Properties=species:S:1:pos:R:3:initial_magmoms:R:1 pbc="T T T"
Si      -0.60308838      -1.16403453      -1.93694794       0.00000000
Si      -1.36373364      -1.07025300       1.57593787       0.00000000
Si      -1.38204360       1.94444186      -0.28122274       0.00000000
Si       2.36908728       0.29999664       0.53490643       0.00000000
Si       2.22703848       2.21378235       1.86765168       0.00000000
Si       0.19704384       3.57691652      -0.94937264       0.00000000
Si      -3.42806760      -1.35658233       0.58439390       0.00000000
Si      -2.88578979      -1.64831994      -1.72854150       0.00000000
Si      -2.81983158       1.55956129      -2.17427385       0.00000000
Si      -1.40297625       0.30652893      -3.63736372       0.00000000
