10
Lattice="16.28999089631971 0.0 0.0 0.0 16.28999089631971 0.0 0.0 0.0 34.51007289658418" Properties=species:S:1:pos:R:3:initial_magmoms:R:1 pbc="T T T"
Si      -0.14204880       1.91378571       1.33274525       0.00000000
Si       0.90328050      -1.92647169       1.05500803       0.00000000
Si      -2.36908728      -0.29999664      -0.53490643       0.00000000
Si       1.51070202       0.54095832      -1.91368814       0.00000000
Si       3.09138588      -0.83351043       1.42951155       0.00000000
Si      -0.22975416       3.79228661      -0.06360210       0.00000000
Si      -1.71655875       1.51658664       3.11223887       0.00000000
Si       1.27571877      -3.77387172      -0.33002001       0.00000000
Si      -3.73282092      -1.37024964       1.04103144       0.00000000
Si      -2.97217566      -1.46403117      -2.47185437       0.00000000
