10
Lattice="16.28999089631971 0.0 0.0 0.0 16.28999089631971 0.0 0.0 0.0 34.51007289658418" Properties=species:S:1:pos:R:3:initial_magmoms:R:1 pbc="T T T"
Si       1.35109260      -1.30153842       1.45771665       0.00000000
Si       1.68729444       0.96239691      -1.42099243       0.00000000
Si      -1.35423657       1.42566822       1.42989461       0.00000000
Si      -1.15838190      -1.84873581      -1.26238842       0.00000000
Si      -2.25313506       0.04411332      -2.36501600       0.00000000
Si      -0.05870916       1.05406074      -3.15481397       0.00000000
Si       2.44630907      -2.74138546      -0.06898222       0.00000000
Si       3.37721741      -0.85046832      -1.33623564       0.00000000
Si       2.70762184       2.69226459      -0.03641160       0.00000000
Si      -2.72202642      -2.67331606       0.20066928       0.00000000
