10
Lattice="16.28999089631971 0.0 0.0 0.0 16.28999089631971 0.0 0.0 0.0 34.51007289658418" Properties=species:S:1:pos:R:3:initial_magmoms:R:1 pbc="T T T"
Si      -0.01335780       1.19662593       2.07864638       0.00000000
Si      -0.25563897      -2.38781656       0.31925286       0.00000000
Si       2.33390088       0.19590191      -0.72378016       0.00000000
Si       0.14529051       1.16355723      -2.18621434       0.00000000
Si      -2.65100202       2.01309702       0.33875106       0.00000000
Si      -0.87001632      -2.15853481       2.61417399       0.00000000
Si       1.96592607       0.13845523       3.08958502       0.00000000
Si       0.23780142       3.51176073       1.75487270       0.00000000
Si       1.92244806      -3.43720207      -0.27749565       0.00000000
Si       3.57225595      -1.70306641      -0.15650327       0.00000000
