10
Lattice="16.28999089631971 0.0 0.0 0.0 16.28999089631971 0.0 0.0 0.0 34.51007289658418" Properties=species:S:1:pos:R:3:initial_magmoms:R:1 pbc="T T T"
Si       0.25115922       2.31513480      -0.32377368       0.00000000
Si       0.01335780      -1.19662593      -2.07864638       0.00000000
Si      -2.06853678       0.20369016       1.28087658       0.00000000
Si       1.97928387      -1.05817071       1.01093864       0.00000000
Si      -2.63764422       0.81647109      -1.73989532       0.00000000
Si      -0.85665852      -3.35516075       0.53552761       0.00000000
Si       0.83222352      -2.79963917       2.08140719       0.00000000
Si      -2.82289410      -2.06295650       0.95613661       0.00000000
Si       2.56582065       2.53099359      -0.47503142       0.00000000
Si      -1.26522801       2.68626987      -2.11774632       0.00000000
