10
Lattice="16.28999089631971 0.0 0.0 0.0 16.28999089631971 0.0 0.0 0.0 34.51007289658418" Properties=species:S:1:pos:R:3:initial_magmoms:R:1 pbc="T T T"
Si      -1.35850455      -1.34416935      -1.36963654       0.00000000
Si       1.35513442       1.36710567      -1.36929144       0.00000000
Si      -1.41991785       1.39251807       1.29789006       0.00000000
Si       1.32864498      -1.34262180       1.48883440       0.00000000
Si       2.26325182       0.51653961       2.81764550       0.00000000
Si       2.69835609      -2.69343258      -0.01062911       0.00000000
Si      -0.00102627      -2.70540573      -2.73219851       0.00000000
Si      -2.71871955      -2.72162243       0.01352796       0.00000000
Si       2.71458908       0.01150074      -2.73078359       0.00000000
Si      -2.71793763       0.01084914      -2.73223302       0.00000000
