10
Lattice="16.28999089631971 0.0 0.0 0.0 16.28999089631971 0.0 0.0 0.0 34.51007289658418" Properties=species:S:1:pos:R:3:initial_magmoms:R:1 pbc="T T T"
Si       2.31466143       0.21585879      -0.15125773       0.00000000
Si      -0.25115922      -2.31513480       0.32377368       0.00000000
Si      -1.51638723       0.37113507      -1.79397263       0.00000000
Si      -0.68764977       0.94449420       2.09690222       0.00000000
Si      -2.31969600      -2.11144464       1.60465027       0.00000000
Si       2.76775801       0.17573652       2.19725757       0.00000000
Si      -2.88880344      -1.49866371      -1.41612163       0.00000000
Si       1.25397162       1.64139669       3.16788842       0.00000000
Si       2.71819894       2.14254225      -1.53380105       0.00000000
Si      -1.47237165       3.16001565       1.63508817       0.00000000
