10
Lattice="16.28999089631971 0.0 0.0 0.0 16.28999089631971 0.0 0.0 0.0 34.51007289658418" Properties=species:S:1:pos:R:3:initial_magmoms:R:1 pbc="T T T"
Si      -1.35537687       1.35721764      -1.35603956       0.00000000
Si      -1.35633798      -1.35733167       1.35735095       0.00000000
Si       1.35896067       1.35752715       1.35745448       0.00000000
Si       1.35874890      -1.35980775      -1.36197530       0.00000000
Si       0.01835883       2.69249265      -2.72450966       0.00000000
Si      -2.71096551       2.71485882      -0.00055216       0.00000000
Si      -2.71213839      -2.71552671      -0.00041412       0.00000000
Si      -2.71309950      -0.00063531       2.71525405       0.00000000
Si       2.71596916       2.71381626       0.00017255       0.00000000
Si       0.00162900      -2.71489140       2.71501248       0.00000000
