10
Lattice="16.28999089631971 0.0 0.0 0.0 16.28999089631971 0.0 0.0 0.0 34.51007289658418" Properties=species:S:1:pos:R:3:initial_magmoms:R:1 pbc="T T T"
Si      -0.27207558       0.90313389       2.17869114       0.00000000
Si       0.82640799       1.90687482      -1.29430101       0.00000000
Si       1.69347582      -1.79802504      -0.41015245       0.00000000
Si      -1.98788499      -0.80316216      -1.33512645       0.00000000
Si      -2.33370540       0.15079653       1.40059209       0.00000000
Si       2.01816810       0.60005844      -2.94308968       0.00000000
Si      -0.71987139      -2.11502844      -2.96838558       0.00000000
Si       3.44915812      -0.69540381      -1.59067368       0.00000000
Si       0.59502483      -3.46716360      -1.64740827       0.00000000
Si       0.53222688      -0.62061642       3.89691412       0.00000000
