10
Lattice="16.28999089631971 0.0 0.0 0.0 16.28999089631971 0.0 0.0 0.0 34.51007289658418" Properties=species:S:1:pos:R:3:initial_magmoms:R:1 pbc="T T T"
Si      -0.26702568      -1.72603953       1.44828504       0.00000000
Si      -1.97022663       1.04407497      -0.64036927       0.00000000
Si       1.71074322       1.51835832       0.41560504       0.00000000
Si       0.07892505      -0.90354114      -2.15308465       0.00000000
Si      -2.18012328      -0.26407719      -2.60920454       0.00000000
Si       1.90073349      -2.54607813       1.52689903       0.00000000
Si      -1.09530702       2.96952039      -1.62207786       0.00000000
Si       0.59357502       3.52504197      -0.07619828       0.00000000
Si      -0.60571107      -0.75740355       3.48617500       0.00000000
Si       3.35715790       0.81448371      -1.10066488       0.00000000
