10
Lattice="16.28999089631971 0.0 0.0 0.0 16.28999089631971 0.0 0.0 0.0 34.51007289658418" Properties=species:S:1:pos:R:3:initial_magmoms:R:1 pbc="T T T"
Si       1.35264693      -1.35461124       1.35797213       0.00000000
Si      -1.35798327      -1.35661491      -1.35717840       0.00000000
Si       1.35632717       1.35814617      -1.35752350       0.00000000
Si      -1.35751086       1.35980775       1.36118157       0.00000000
Si       2.71524068      -2.71288773      -0.00010353       0.00000000
Si       0.00407250      -2.69495244       2.73364793       0.00000000
Si      -0.00076563      -2.71440270      -2.71483993       0.00000000
Si       2.71454021       0.00009774      -2.71473640       0.00000000
Si       2.71379901       2.71624347       0.00031059       0.00000000
Si      -2.71542897       0.00076563      -2.71477091       0.00000000
