10
Lattice="16.28999089631971 0.0 0.0 0.0 16.28999089631971 0.0 0.0 0.0 34.51007289658418" Properties=species:S:1:pos:R:3:initial_magmoms:R:1 pbc="T T T"
Si       2.06272125      -1.31087259      -0.13534858       0.00000000
Si      -1.87957278      -0.47939841      -1.60292476       0.00000000
Si      -0.73019925      -1.74335580       1.92631884       0.00000000
Si       0.75355911       2.17383534      -1.50508865       0.00000000
Si      -0.47283354      -1.76787225      -3.03816499       0.00000000
Si       1.05296931      -3.13575984      -1.40825333       0.00000000
Si       2.22738057       0.98297118      -3.06273617       0.00000000
Si      -3.70366182      -1.46126187      -0.47813733       0.00000000
Si       3.61519297      -0.31837176      -1.71442687       0.00000000
Si      -2.99724597      -2.60498277       1.45225370       0.00000000
