10
Lattice="16.28999089631971 0.0 0.0 0.0 16.28999089631971 0.0 0.0 0.0 34.51007289658418" Properties=species:S:1:pos:R:3:initial_magmoms:R:1 pbc="T T T"
Si       1.39292532       1.48204695       1.34440966       0.00000000
Si       1.47382146      -1.19086416      -1.55764752       0.00000000
Si      -1.23077466       1.49221680      -1.54063405       0.00000000
Si      -0.75355911      -2.17383534       1.50508865       0.00000000
Si      -2.63313189      -2.65323375      -0.09783611       0.00000000
Si       2.86163386      -2.49220710      -0.20933822       0.00000000
Si      -2.63283867       2.82413933      -0.11792098       0.00000000
Si       0.12958695      -2.56165137      -2.92441972       0.00000000
Si      -2.58613524       0.15232779      -2.92756014       0.00000000
Si       1.30916214      -3.48470793       1.36974007       0.00000000
