10
Lattice="16.28999089631971 0.0 0.0 0.0 16.28999089631971 0.0 0.0 0.0 34.51007289658418" Properties=species:S:1:pos:R:3:initial_magmoms:R:1 pbc="T T T"
Si       0.44118600      -1.69784154       1.55685379       0.00000000
Si       1.64980789       1.73413566       0.12099238       0.00000000
Si      -2.17808703       1.04938551       0.59674851       0.00000000
Si       0.44104281      -1.22065857      -2.17354914       0.00000000
Si       0.41145282       3.63310398      -0.44628451       0.00000000
Si      -1.61823231      -2.59439427       2.36066286       0.00000000
Si       1.66000054      -0.87636942       3.41308263       0.00000000
Si       2.57939837      -0.08469171      -2.95723882       0.00000000
Si      -1.92244806       3.43720207       0.27749565       0.00000000
Si       1.46094000      -3.62048508       0.73130336       0.00000000
