10
Lattice="16.28999089631971 0.0 0.0 0.0 16.28999089631971 0.0 0.0 0.0 34.51007289658418" Properties=species:S:1:pos:R:3:initial_magmoms:R:1 pbc="T T T"
Si       2.25784939       0.59326551       0.39828097       0.00000000
Si      -0.40353751      -1.92668346       1.38254331       0.00000000
Si      -0.58670911       1.78548174       1.51347460       0.00000000
Si      -1.35593140       1.24722756      -1.77195519       0.00000000
Si       0.56998058      -3.53071089      -0.10066594       0.00000000
Si       0.42738770       3.57800076       0.23273606       0.00000000
Si      -1.63844887      -0.57666600      -3.31866301       0.00000000
Si       3.12301129      -1.10737791       1.77406031       0.00000000
Si      -2.71819894      -2.14254225       1.53380105       0.00000000
Si       3.62189254       0.54429777      -1.47509938       0.00000000
