10
Lattice="16.28999089631971 0.0 0.0 0.0 16.28999089631971 0.0 0.0 0.0 34.51007289658418" Properties=species:S:1:pos:R:3:initial_magmoms:R:1 pbc="T T T"
Si       0.75929319      -1.76191011       1.62214688       0.00000000
Si       1.47165489       2.02079079      -0.34441072       0.00000000
Si       0.90818379      -1.97809470      -1.52030760       0.00000000
Si      -2.14453289       0.87193854      -1.41750204       0.00000000
Si       2.61674415      -0.21668958       1.53749363       0.00000000
Si      -3.17299552       1.24657596       0.76015380       0.00000000
Si       2.04662673      -0.37595691      -2.98519199       0.00000000
Si       1.73330487       1.46991186       2.90392073       0.00000000
Si       3.29110128       0.98047881      -1.47503036       0.00000000
Si      -0.81176328       2.28776760      -2.97069776       0.00000000
