10
Lattice="16.28999089631971 0.0 0.0 0.0 16.28999089631971 0.0 0.0 0.0 34.51007289658418" Properties=species:S:1:pos:R:3:initial_magmoms:R:1 pbc="T T T"
Si       2.25227169      -0.57607956       0.01615072       0.00000000
Si      -0.23672628       0.09140319      -2.31894015       0.00000000
Si      -0.89516808      -1.81532502       1.19152995       0.00000000
Si      -0.71506584       2.05350111       0.93270426       0.00000000
Si      -3.15397369      -1.42794882       0.75794515       0.00000000
Si      -0.57386412      -2.23604685      -2.69872372       0.00000000
Si       3.10554189       1.15924527      -1.36256197       0.00000000
Si       1.36518345       2.87974620       1.68916548       0.00000000
Si       2.84154615      -0.48560490       2.28715636       0.00000000
Si       2.34784512      -2.89538460      -0.72315898       0.00000000
