10
Lattice="16.28999089631971 0.0 0.0 0.0 16.28999089631971 0.0 0.0 0.0 34.51007289658418" Properties=species:S:1:pos:R:3:initial_magmoms:R:1 pbc="T T T"
Si       0.93822255       2.07736596       0.44666412       0.00000000
Si       1.57973904      -1.48196646       0.87745360       0.00000000
Si       0.37642932      -0.49389651      -2.26344793       0.00000000
Si      -2.06900593      -0.09642051       1.15305120       0.00000000
Si      -2.51262173      -2.14495317       0.03085202       0.00000000
Si       0.31324041      -1.46509002       3.16354015       0.00000000
Si       2.54112597       1.32250365       2.02184277       0.00000000
Si      -1.18934919       0.49658436       3.26582806       0.00000000
Si       3.59642475      -0.22981932       0.64468303       0.00000000
Si      -1.25516568       0.42640704      -3.62514714       0.00000000
