10
Lattice="16.28999089631971 0.0 0.0 0.0 16.28999089631971 0.0 0.0 0.0 34.51007289658418" Properties=species:S:1:pos:R:3:initial_magmoms:R:1 pbc="T T T"
Si      -0.87965674      -0.59300487      -2.11277686       0.00000000
Si      -1.63980746       0.35745147       1.78776082       0.00000000
Si       1.50258960      -1.96167438      -0.10228791       0.00000000
Si       0.90469773       2.63231739      -0.87300180       0.00000000
Si       1.68599871       2.35926441       1.85050016       0.00000000
Si       1.18934919      -0.49658436      -3.26582806       0.00000000
Si      -0.02133664       1.39256694       3.22962495       0.00000000
Si      -2.30294078       1.22082147      -2.58767024       0.00000000
Si       3.55719843      -0.94446162       0.25813549       0.00000000
Si      -1.31984838       3.18881637      -1.68067600       0.00000000
