10
Lattice="16.28999089631971 0.0 0.0 0.0 16.28999089631971 0.0 0.0 0.0 34.51007289658418" Properties=species:S:1:pos:R:3:initial_magmoms:R:1 pbc="T T T"
Si      -1.35568638      -1.35827649       1.35842076       0.00000000
Si      -1.35746199       1.35814617      -1.35828272       0.00000000
Si       1.35946566       1.35705474       1.35873135       0.00000000
Si       1.36021500      -1.36239786      -1.35931802       0.00000000
Si      -2.69761490       0.00969255      -2.72371938       0.00000000
Si      -2.71309040       2.71443528       0.00144942       0.00000000
Si      -2.71389942      -0.00022806       2.71563366       0.00000000
Si       0.00166158      -2.71497285       2.71542660       0.00000000
Si      -2.71398373      -2.71648782       0.00103530       0.00000000
Si       2.71772586       2.71304438       0.00117334       0.00000000
