10
Lattice="10.86 0.0 0.0 0.0 10.86 0.0 0.0 0.0 10.86" Properties=species:S:1:pos:R:3:initial_magmoms:R:1 pbc="T T T"
Si      -0.93472020       1.22863524      -1.41655668       0.00000000
Si      -0.93472020      -1.48636476       1.29844332       0.00000000
Si       1.80131562       1.28222934       0.61875936       0.00000000
Si       1.78027980      -1.48636476      -1.41655668       0.00000000
Si      -2.29222020      -0.12886476      -2.77405668       0.00000000
Si      -2.29222020      -2.84386476      -0.05905668       0.00000000
Si      -2.55079680       2.64628878       0.02555358       0.00000000
Si       2.95293174      -0.13274178       2.36797956       0.00000000
Si       0.42277980       2.58613524      -2.77405668       0.00000000
Si       0.42277980      -2.84386476       2.65594332       0.00000000
