10
Lattice="16.28999089631971 0.0 0.0 0.0 16.28999089631971 0.0 0.0 0.0 34.281931910070035" Properties=species:S:1:pos:R:3:initial_magmoms:R:1 pbc="T T T"
Si       0.67870656      -1.60868637      -1.52218719       0.00000000
Si      -0.17336470       2.07834336      -1.15033087       0.00000000
Si      -1.92323717      -0.64910763       1.27683127       0.00000000
Si       1.80371025       0.03443706       1.59647618       0.00000000
Si       0.30322206      -3.64229739      -0.30349811       0.00000000
Si      -1.59431843       3.34071315       0.27274720       0.00000000
Si      -0.82892479      -1.49162643      -3.33786217       0.00000000
Si       2.03308974       2.54993886      -1.94615208       0.00000000
Si       2.54282013       2.24754759       1.88992968       0.00000000
Si      -2.40708275       0.92963772       3.02195399       0.00000000
