10
Lattice="16.28999089631971 0.0 0.0 0.0 16.28999089631971 0.0 0.0 0.0 34.281931910070035" Properties=species:S:1:pos:R:3:initial_magmoms:R:1 pbc="T T T"
Si       1.35197226      -1.35778633      -1.35831947       0.00000000
Si       1.35536058       1.35791372       1.35759954       0.00000000
Si      -1.35899325      -1.35763972       1.35705103       0.00000000
Si      -1.35909099       1.35816133      -1.36174766       0.00000000
Si      -0.01115865      -2.69892574      -2.70708455       0.00000000
Si       2.71301805      -0.00012144       2.71430776       0.00000000
Si       2.71458189      -2.71348900      -0.00075420       0.00000000
Si      -0.00161271       2.71483488       2.71468486       0.00000000
Si      -0.00159642      -2.71519945       2.71444489       0.00000000
Si       2.71516833       2.71449279       0.00143984       0.00000000
