10
Lattice="16.28999089631971 0.0 0.0 0.0 16.28999089631971 0.0 0.0 0.0 34.281931910070035" Properties=species:S:1:pos:R:3:initial_magmoms:R:1 pbc="T T T"
Si       1.39944132      -0.86269397       1.62719281       0.00000000
Si      -1.01115288      -1.87145289      -0.94923294       0.00000000
Si       1.27917225       1.39631201      -1.45009225       0.00000000
Si      -1.94206122       0.82003697       1.23168194       0.00000000
Si       1.17120213       1.04933501       2.99713385       0.00000000
Si       0.40166253       3.39511130      -0.54758560       0.00000000
Si      -1.64677239      -2.84005629       1.16911738       0.00000000
Si      -2.34100332      -0.74281911      -2.68619656       0.00000000
Si       0.84145995       3.14896940       1.80024810       0.00000000
Si       0.11715768      -2.49413814       2.77803790       0.00000000
