10
Lattice="16.28999089631971 0.0 0.0 0.0 16.28999089631971 0.0 0.0 0.0 34.281931910070035" Properties=species:S:1:pos:R:3:initial_magmoms:R:1 pbc="T T T"
Si       1.30458465       1.07665497      -1.59891020       0.00000000
Si      -2.01618072       0.28049751      -1.19966260       0.00000000
Si       0.17000244       1.13552703       2.09654700       0.00000000
Si       0.80884737      -2.23106930       0.36085182       0.00000000
Si      -1.78794153      -1.63153147      -2.56960364       0.00000000
Si       3.37740570       1.07797446      -0.28947679       0.00000000
Si      -0.10492389       3.04285797      -1.86270981       0.00000000
Si      -1.79773182       0.36839835       3.08009618       0.00000000
Si       3.11047776      -2.05820697       0.88625700       0.00000000
Si      -3.87990333      -0.05471811       0.15269181       0.00000000
