10
Lattice="16.28999089631971 0.0 0.0 0.0 16.28999089631971 0.0 0.0 0.0 34.281931910070035" Properties=species:S:1:pos:R:3:initial_magmoms:R:1 pbc="T T T"
Si       1.95810687      -1.26878642      -0.29921287       0.00000000
Si      -1.04545962      -0.69638840       2.01043074       0.00000000
Si       0.43948791       2.27840085       0.50942979       0.00000000
Si      -1.55519001      -0.39399713      -1.82565102       0.00000000
Si      -1.64268360       1.85528439      -2.41797457       0.00000000
Si      -1.23540102       3.33485622      -0.72022951       0.00000000
Si       0.97852401      -3.45094595      -0.78200559       0.00000000
Si       3.04606710      -0.32106680      -2.20981457       0.00000000
Si      -1.78456950      -2.90949893       1.71697724       0.00000000
Si       2.23721973       1.91000250      -2.57066638       0.00000000
