10
Lattice="16.28999089631971 0.0 0.0 0.0 16.28999089631971 0.0 0.0 0.0 34.281931910070035" Properties=species:S:1:pos:R:3:initial_magmoms:R:1 pbc="T T T"
Si      -1.22733747       0.66852531      -1.82993627       0.00000000
Si      -0.79573392       1.03553901       1.93360489       0.00000000
Si       2.30257521       0.41065461       0.19787542       0.00000000
Si      -0.40358475      -2.32836228       0.08553347       0.00000000
Si       2.24916030      -0.72275472       2.35534145       0.00000000
Si       1.42478856      -2.77058691       1.49191623       0.00000000
Si      -3.40105878       0.03114648      -1.13223000       0.00000000
Si      -0.53457264       3.36741993       1.39277283       0.00000000
Si       0.53380701       0.25518285       3.70341061       0.00000000
Si       3.15745812      -0.10818189      -2.03874763       0.00000000
