10
Lattice="16.28999089631971 0.0 0.0 0.0 16.28999089631971 0.0 0.0 0.0 34.281931910070035" Properties=species:S:1:pos:R:3:initial_magmoms:R:1 pbc="T T T"
Si       1.29420792       1.27037565       1.53294971       0.00000000
Si       1.32077691      -1.34574948      -1.53747694       0.00000000
Si      -0.87956226       1.29440340      -1.91378992       0.00000000
Si      -1.43894457      -1.36446669       1.64015280       0.00000000
Si      -3.21282783       1.11418713      -1.46634189       0.00000000
Si       2.52622062      -2.79681381       0.10133745       0.00000000
Si      -0.54762093      -2.06975853      -3.30999094       0.00000000
Si       2.49914664      -0.19298763       3.06073514       0.00000000
Si       2.57215842       3.01149972       0.08217384       0.00000000
Si      -0.22584456       2.50950708       3.05730009       0.00000000
