10
Lattice="16.28999089631971 0.0 0.0 0.0 16.28999089631971 0.0 0.0 0.0 34.281931910070035" Properties=species:S:1:pos:R:3:initial_magmoms:R:1 pbc="T T T"
Si      -2.33326557      -0.18021627       0.44744803       0.00000000
Si       0.41601402      -1.10211624      -2.08993058       0.00000000
Si       0.35916192       2.37811194      -0.37370755       0.00000000
Si       0.87956226      -1.29440340       1.91378992       0.00000000
Si       2.20033917      -2.64015288       0.37631298       0.00000000
Si       2.54391156      -0.30362931      -2.53395041       0.00000000
Si       0.33194133      -3.36416193      -1.39620102       0.00000000
Si      -1.70711055       3.35236797      -0.00702780       0.00000000
Si      -2.63140515       1.73729592       2.08434262       0.00000000
Si      -0.88042563      -0.12836520      -3.77002044       0.00000000
