10
Lattice="16.28999089631971 0.0 0.0 0.0 16.28999089631971 0.0 0.0 0.0 34.281931910070035" Properties=species:S:1:pos:R:3:initial_magmoms:R:1 pbc="T T T"
Si       1.78414596      -1.01988432       1.02715582       0.00000000
Si      -2.04599861      -0.83458557       0.71532719       0.00000000
Si       0.53460522      -0.91396674      -2.09065050       0.00000000
Si      -0.37297421       2.32277481       0.12650040       0.00000000
Si      -0.82444667       0.62560116      -3.16326419       0.00000000
Si      -0.65392784      -2.91596050      -1.65753233       0.00000000
Si       1.85207526       2.91074607      -0.30754338       0.00000000
Si      -1.63432194       2.46044160      -1.86288122       0.00000000
Si       2.19142854       0.45968751       2.72490088       0.00000000
Si      -1.74205179      -0.25814763       3.07958195       0.00000000
