10
Lattice="16.28999089631971 0.0 0.0 0.0 16.28999089631971 0.0 0.0 0.0 34.281931910070035" Properties=species:S:1:pos:R:3:initial_magmoms:R:1 pbc="T T T"
Si       1.32563133       1.03263939       1.54735014       0.00000000
Si      -2.08507113       0.96457977       0.36448570       0.00000000
Si       0.62758854       0.27789111      -2.23288632       0.00000000
Si      -0.05043384      -2.32932339       0.49705401       0.00000000
Si      -3.01883022      -0.30556782      -1.45009225       0.00000000
Si      -1.48507785      -0.00267156      -3.19727188       0.00000000
Si       1.64717964      -1.79822052      -2.82829525       0.00000000
Si       0.49839255      -3.41888004      -1.54673307       0.00000000
Si       0.64233099       0.36957123       3.71976310       0.00000000
Si      -2.76337044       0.47170953       2.57169484       0.00000000
