10
Lattice="16.28999089631971 0.0 0.0 0.0 16.28999089631971 0.0 0.0 0.0 34.281931910070035" Properties=species:S:1:pos:R:3:initial_magmoms:R:1 pbc="T T T"
Si       1.37526696      -1.32857982      -1.28675932       0.00000000
Si       1.36313091       1.34113941       1.34876509       0.00000000
Si      -1.34708526      -1.37319813       1.34753094       0.00000000
Si      -1.29458259       1.36958175      -1.47868340       0.00000000
Si      -2.11017402      -0.53978544      -2.63194366       0.00000000
Si       2.21413680       0.35640891      -2.65211550       0.00000000
Si      -0.33783831      -2.40393159      -2.50368596       0.00000000
Si       0.55874700       2.18817054      -2.76515273       0.00000000
Si       0.01115865       2.69892574       2.70708455       0.00000000
Si      -2.70449838      -0.01814706       2.70807873       0.00000000
