10
Lattice="16.28999089631971 0.0 0.0 0.0 16.28999089631971 0.0 0.0 0.0 34.281931910070035" Properties=species:S:1:pos:R:3:initial_magmoms:R:1 pbc="T T T"
Si       1.35213516       1.34566056       1.37379777       0.00000000
Si      -1.36516716      -1.36909305       1.36711279       0.00000000
Si       1.30673493      -1.40177079      -1.39204948       0.00000000
Si      -1.27329156       1.36533725      -1.51099413       0.00000000
Si      -2.16955107      -0.52206192      -2.74680503       0.00000000
Si      -0.51416127      -2.35382355      -2.63376780       0.00000000
Si       2.70453096       2.68678205      -0.00155640       0.00000000
Si      -2.71275741       2.70795905      -0.02472757       0.00000000
Si      -0.00197109       2.70318608       2.72687209       0.00000000
Si       2.71114470      -0.00978543       2.72649499       0.00000000
