10
Lattice="16.28999089631971 0.0 0.0 0.0 16.28999089631971 0.0 0.0 0.0 34.281931910070035" Properties=species:S:1:pos:R:3:initial_magmoms:R:1 pbc="T T T"
Si       1.35796698       1.35562864      -1.35797665       0.00000000
Si      -1.35852084       1.35670379       1.35749670       0.00000000
Si      -1.35664749      -1.35944937      -1.35783952       0.00000000
Si       1.35705474      -1.36277253       1.36140484       0.00000000
Si      -2.70791928       0.00123804       2.70258333       0.00000000
Si      -2.71322982       2.71326796       0.00020569       0.00000000
Si      -2.71353933      -2.71454931      -0.00030854       0.00000000
Si       0.00030951       2.71366380      -2.71468486       0.00000000
Si       2.71608057       2.71280043       0.00061708       0.00000000
Si      -2.71404432      -0.00188964      -2.71523337       0.00000000
