10
Lattice="16.28999089631971 0.0 0.0 0.0 16.28999089631971 0.0 0.0 0.0 34.281931910070035" Properties=species:S:1:pos:R:3:initial_magmoms:R:1 pbc="T T T"
Si       1.35969372       1.33211475      -1.39338990       0.00000000
Si      -1.35751086      -1.37722176      -1.38965317       0.00000000
Si       1.40248755      -1.33035543       1.50566329       0.00000000
Si      -1.25763687       1.65073086       1.42582063       0.00000000
Si      -2.70528030       2.69612532      -0.05221141       0.00000000
Si       2.70917361      -2.70726768      -0.03273926       0.00000000
Si       2.74074363       2.68120368      -0.00894759       0.00000000
Si      -2.70974376      -2.72779308      -0.01631821       0.00000000
Si       0.00263898       2.69488728      -2.75479474       0.00000000
Si      -2.71090035      -0.01966203      -2.75510328       0.00000000
