10
Lattice="16.28999089631971 0.0 0.0 0.0 16.28999089631971 0.0 0.0 0.0 34.281931910070035" Properties=species:S:1:pos:R:3:initial_magmoms:R:1 pbc="T T T"
Si       0.69331869      -1.29935556       1.82376551       0.00000000
Si      -2.23959807       0.26915967       0.65766495       0.00000000
Si       0.50238360      -1.35728280      -1.89380354       0.00000000
Si       0.82453464       2.22089715      -0.40912080       0.00000000
Si      -0.01586646       0.27922689       3.44087943       0.00000000
Si      -3.18909330      -1.77964992       0.11011363       0.00000000
Si      -3.09529548       1.65299517      -1.08924043       0.00000000
Si       3.06843327       2.13871410       0.24604156       0.00000000
Si      -2.31526512       0.72185877       3.01070951       0.00000000
Si       2.51910189      -0.66704292      -2.93210099       0.00000000
