10
Lattice="16.28999089631971 0.0 0.0 0.0 16.28999089631971 0.0 0.0 0.0 34.281931910070035" Properties=species:S:1:pos:R:3:initial_magmoms:R:1 pbc="T T T"
Si      -0.94949523      -2.04880959      -0.54755132       0.00000000
Si       2.23959807      -0.26915967      -0.65766495       0.00000000
Si      -0.85569741       1.38383550      -1.74690538       0.00000000
Si      -0.07566705       0.45269910       2.35304456       0.00000000
Si       2.93291676      -1.56851523       1.16610057       0.00000000
Si       2.22373161       0.01006722       2.78321448       0.00000000
Si      -3.23669268      -1.70228871      -0.02629426       0.00000000
Si      -2.19616893      -0.13825323      -2.94728790       0.00000000
Si      -2.89082340       2.20087674       0.92869805       0.00000000
Si      -0.87825906      -2.22808104      -2.89641348       0.00000000
