10
Lattice="16.28999089631971 0.0 0.0 0.0 16.28999089631971 0.0 0.0 0.0 34.281931910070035" Properties=species:S:1:pos:R:3:initial_magmoms:R:1 pbc="T T T"
Si       1.05122628      -2.09409579      -0.18457402       0.00000000
Si       1.28228364       1.63144417      -1.15084510       0.00000000
Si      -1.76393007      -0.34591815      -1.60892053       0.00000000
Si      -0.72218457       0.95897601       2.16377391       0.00000000
Si       0.16781958      -3.21101964       1.69743653       0.00000000
Si      -0.80967816       3.20825753       1.57145036       0.00000000
Si      -3.24775196       1.31218135      -1.11323780       0.00000000
Si       1.05404445       3.54347315       0.21909595       0.00000000
Si      -0.11715768       2.49413814      -2.77803790       0.00000000
Si       1.12689333      -2.54679489      -2.53761858       0.00000000
