10
Lattice="16.28999089631971 0.0 0.0 0.0 16.28999089631971 0.0 0.0 0.0 34.281931910070035" Properties=species:S:1:pos:R:3:initial_magmoms:R:1 pbc="T T T"
Si      -0.38322225       2.32525089       0.05128580       0.00000000
Si       1.97115516      -0.22827177      -1.31354724       0.00000000
Si      -1.96232517      -0.94610691      -0.95886617       0.00000000
Si       0.69864552      -0.76082445       2.15914584       0.00000000
Si       1.79729199       3.02156694      -0.45543572       0.00000000
Si       3.00965895      -0.21422979       1.91838370       0.00000000
Si      -1.60906267       2.65626369      -1.92414307       0.00000000
Si      -1.97604200      -3.16635083      -0.20006947       0.00000000
Si       1.56387258      -1.70784360      -3.01129230       0.00000000
Si       3.64604409      -1.28472714      -0.08388793       0.00000000
