10
Lattice="16.28999089631971 0.0 0.0 0.0 16.28999089631971 0.0 0.0 0.0 34.281931910070035" Properties=species:S:1:pos:R:3:initial_magmoms:R:1 pbc="T T T"
Si      -1.34231229      -1.35496662      -1.38992742       0.00000000
Si       1.37173203       1.36251515      -1.38924179       0.00000000
Si      -1.37886705       1.40056859       1.44351011       0.00000000
Si       1.36932111      -1.30291916       1.66339455       0.00000000
Si       0.39921903       2.32729040       2.65746828       0.00000000
Si       2.11193334       0.54938351       3.08575270       0.00000000
Si      -2.68205076      -2.72217696      -0.00370245       0.00000000
Si       2.72086983      -2.70269412       0.00294825       0.00000000
Si       2.73779514       2.69896304      -0.03297924       0.00000000
Si      -2.70234810       2.74423295      -0.00987320       0.00000000
