10
Lattice="16.28999089631971 0.0 0.0 0.0 16.28999089631971 0.0 0.0 0.0 34.281931910070035" Properties=species:S:1:pos:R:3:initial_magmoms:R:1 pbc="T T T"
Si       2.37596166      -0.07780104      -0.09160137       0.00000000
Si      -1.10905578      -2.09817548       0.34299092       0.00000000
Si      -0.18443538       1.31227353       2.06332779       0.00000000
Si      -1.04334192       0.71416989      -2.11118539       0.00000000
Si      -3.27696156      -1.39591291       1.09263434       0.00000000
Si       3.02653539       1.77841188      -1.36877546       0.00000000
Si      -0.36821916      -3.62241449      -1.36092489       0.00000000
Si       3.33612684       0.00922014       2.03871335       0.00000000
Si      -1.48902003       0.23561856       3.66223799       0.00000000
Si      -3.39723063       0.86309307      -1.98465071       0.00000000
