10
Lattice="16.28999089631971 0.0 0.0 0.0 16.28999089631971 0.0 0.0 0.0 34.281931910070035" Properties=species:S:1:pos:R:3:initial_magmoms:R:1 pbc="T T T"
Si      -0.35363961      -2.27773296      -0.26174270       0.00000000
Si       2.24469684       0.65067147      -0.23887664       0.00000000
Si      -0.53885691       0.97621083      -2.14159348       0.00000000
Si      -0.85488291       0.51883650       2.23662305       0.00000000
Si      -0.07897392       3.11788971      -1.29846318       0.00000000
Si      -2.42646066      -2.27905245      -1.57117610       0.00000000
Si       2.99703420      -0.35429121      -2.18585148       0.00000000
Si       2.18514060       2.95396344      -0.73359947       0.00000000
Si      -3.15745812       0.10818189       2.03874763       0.00000000
Si       3.24752553       0.44351154       1.84286056       0.00000000
