10
Lattice="16.28999089631971 0.0 0.0 0.0 16.28999089631971 0.0 0.0 0.0 34.281931910070035" Properties=species:S:1:pos:R:3:initial_magmoms:R:1 pbc="T T T"
Si       1.35703845       1.35698958       1.35633111       0.00000000
Si      -1.35816246      -1.35839052       1.35626255       0.00000000
Si       1.35348723      -1.35894438      -1.36260471       0.00000000
Si      -1.36000323       1.35769005      -1.36476447       0.00000000
Si       2.71388142      -0.00096111       2.71399922       0.00000000
Si      -0.00043983       2.71404432       2.71451345       0.00000000
Si       2.71389771       2.71510317      -0.00253686       0.00000000
Si      -0.00114030      -2.71508688       2.71410207       0.00000000
Si      -2.71580364      -0.00070047       2.71389637       0.00000000
Si       2.71480995      -2.71645524      -0.00078848       0.00000000
