10
Lattice="16.28999089631971 0.0 0.0 0.0 16.28999089631971 0.0 0.0 0.0 34.281931910070035" Properties=species:S:1:pos:R:3:initial_magmoms:R:1 pbc="T T T"
Si      -1.29945254       1.39895262       1.43304726       0.00000000
Si       1.42298037      -1.30082166       1.42792211       0.00000000
Si      -1.83362588      -0.98789076      -1.37239019       0.00000000
Si       0.84652614       1.92466350      -1.48349799       0.00000000
Si       1.14466572       0.00715131      -3.12039259       0.00000000
Si       2.61711882       2.73336426       0.06136126       0.00000000
Si      -2.68300277       2.70534546       0.01194383       0.00000000
Si       2.91854898      -2.47150251      -0.01389790       0.00000000
Si      -2.65416947       0.05093883       2.79737293       0.00000000
Si       0.05656214      -2.66421321       2.79178497       0.00000000
