10
Lattice="16.28999089631971 0.0 0.0 0.0 16.28999089631971 0.0 0.0 0.0 34.281931910070035" Properties=species:S:1:pos:R:3:initial_magmoms:R:1 pbc="T T T"
Si      -1.35342207       1.35471591       1.35999928       0.00000000
Si       1.35672894       1.35647380      -1.35708532       0.00000000
Si       1.35309627      -1.35816246       1.35972503       0.00000000
Si      -1.35788553      -1.35822762      -1.35711960       0.00000000
Si      -2.71259451      -2.71391400       0.00013713       0.00000000
Si       2.71376739       2.71410363      -0.00013713       0.00000000
Si      -2.71518462       2.71398960       0.00099418       0.00000000
Si       2.71450044      -0.00081450      -2.71478771       0.00000000
Si      -0.00058644       2.71482202      -2.71461630       0.00000000
Si      -2.71585251      -0.00045612      -2.71420491       0.00000000
