10
Lattice="16.28999089631971 0.0 0.0 0.0 16.28999089631971 0.0 0.0 0.0 34.281931910070035" Properties=species:S:1:pos:R:3:initial_magmoms:R:1 pbc="T T T"
Si      -1.27438299      -1.44604701       1.45129212       0.00000000
Si       1.26490221      -1.36412460      -1.58207776       0.00000000
Si       1.32071175       1.35001746       1.60391536       0.00000000
Si      -1.44135549       1.32349734      -1.58382614       0.00000000
Si      -2.95036335       0.42142230       2.26555702       0.00000000
Si       2.61001638       2.74275514       0.08327086       0.00000000
Si       2.80852632      -2.58206274      -0.13208836       0.00000000
Si      -2.77961157      -2.68806177      -0.06921526       0.00000000
Si      -2.62195695       2.90687298      -0.27919221       0.00000000
Si       2.60490132      -0.02217069      -2.97032537       0.00000000
