10
Lattice="16.28999089631971 0.0 0.0 0.0 16.28999089631971 0.0 0.0 0.0 34.281931910070035" Properties=species:S:1:pos:R:3:initial_magmoms:R:1 pbc="T T T"
Si      -1.35001746      -1.35370877       1.38632096       0.00000000
Si       1.35983448       1.36119240       1.38436689       0.00000000
Si      -1.52906085       1.25423226      -1.44594070       0.00000000
Si       1.36797948      -1.35492564      -1.51932122       0.00000000
Si       2.73864941       0.22278204      -2.64304175       0.00000000
Si      -0.16573446      -2.48953717      -2.89643546       0.00000000
Si       2.71354652      -2.70648874      -0.00296882       0.00000000
Si      -2.71261080      -2.71440356       0.01558800       0.00000000
Si      -2.71691136       2.72018565       0.01424758       0.00000000
Si       2.72625272       2.72458395       0.02050403       0.00000000
