10
Lattice="16.28999089631971 0.0 0.0 0.0 16.28999089631971 0.0 0.0 0.0 34.281931910070035" Properties=species:S:1:pos:R:3:initial_magmoms:R:1 pbc="T T T"
Si       1.35396728      -1.35726786       1.36205620       0.00000000
Si      -1.36155078       1.35734144       1.36219333       0.00000000
Si       1.35001746       1.35370877      -1.38632096       0.00000000
Si      -1.36259334      -1.36069479      -1.37073296       0.00000000
Si       2.70985194       2.71490117      -0.00195407       0.00000000
Si       2.71166991      -2.71633862       0.00191979       0.00000000
Si      -2.71332756       2.71639985       0.00267399       0.00000000
Si       2.71140764       0.00020362       2.71914151       0.00000000
Si      -2.71948518      -2.71371593       0.00178266       0.00000000
Si      -0.00276930       2.71491746       2.71917579       0.00000000
