10
Lattice="16.28999089631971 0.0 0.0 0.0 16.28999089631971 0.0 0.0 0.0 34.281931910070035" Properties=species:S:1:pos:R:3:initial_magmoms:R:1 pbc="T T T"
Si      -1.35672894      -1.35647380       1.35708532       0.00000000
Si       1.35703845       1.35762984       1.35694819       0.00000000
Si       1.35777150      -1.35728830      -1.35770239       0.00000000
Si      -1.35731538       1.35834822      -1.35753098       0.00000000
Si      -2.71015101      -0.00175789       2.71708460       0.00000000
Si      -2.71476108       0.00198674      -2.71375925       0.00000000
Si      -2.71461447      -2.71470142      -0.00003428       0.00000000
Si      -2.71450044       2.71521889      -0.00058279       0.00000000
Si       2.71493162       0.00056071      -2.71499340       0.00000000
Si      -0.00058644       2.71517002      -2.71485627       0.00000000
