10
Lattice="16.28999089631971 0.0 0.0 0.0 16.28999089631971 0.0 0.0 0.0 34.281931910070035" Properties=species:S:1:pos:R:3:initial_magmoms:R:1 pbc="T T T"
Si      -0.03546333      -0.32784018       2.32390490       0.00000000
Si       2.01464946       1.03901204      -0.61885778       0.00000000
Si       0.27508923      -2.22013545      -0.74631807       0.00000000
Si      -1.78582383       1.41707036      -0.74823786       0.00000000
Si       1.65009555       2.76969422       0.99571927       0.00000000
Si      -0.17290206      -1.57329213      -3.06881741       0.00000000
Si       2.15632359      -1.31064846      -2.37680195       0.00000000
Si       2.78482437      -2.38321464      -0.14432701       0.00000000
Si      -1.55212749      -2.04980721       2.63686483       0.00000000
Si       3.63819231      -0.31067052       0.58125048       0.00000000
