10
Lattice="16.28999089631971 0.0 0.0 0.0 16.28999089631971 0.0 0.0 0.0 34.281931910070035" Properties=species:S:1:pos:R:3:initial_magmoms:R:1 pbc="T T T"
Si      -1.35728280      -1.35653346       1.35742813       0.00000000
Si      -1.35715248       1.35759231      -1.35725672       0.00000000
Si       1.35799956       1.35754344       1.35684534       0.00000000
Si       1.35796698      -1.35733167      -1.35749670       0.00000000
Si       2.71391345       0.00267156      -2.71509624       0.00000000
Si      -2.71466334      -0.00052128      -2.71441060       0.00000000
Si       2.71464356      -2.71446786       0.00051423       0.00000000
Si       0.00104256       2.71467963      -2.71461630       0.00000000
Si      -0.00081450      -2.71490769      -2.71447917       0.00000000
Si      -2.71472850      -2.71485882      -0.00020569       0.00000000
