10
Lattice="16.28999089631971 0.0 0.0 0.0 16.28999089631971 0.0 0.0 0.0 34.281931910070035" Properties=species:S:1:pos:R:3:initial_magmoms:R:1 pbc="T T T"
Si       1.03915394       1.77790689      -1.17285411       0.00000000
Si      -1.72511100      -1.05590151      -1.24265216       0.00000000
Si      -1.30710960       1.55030301       1.32177491       0.00000000
Si       1.79818209      -1.80708228       0.21446789       0.00000000
Si      -0.34054245      -2.34826866      -2.57752277       0.00000000
Si       2.37397821       0.40164624      -2.57210622       0.00000000
Si      -0.70524297      -1.87866054       2.96528592       0.00000000
Si       0.27254799       0.08861760       3.72041446       0.00000000
Si       0.20004120       2.37205206       2.96556018       0.00000000
Si      -2.67911856      -2.71994130       0.11292475       0.00000000
