10
Lattice="16.28999089631971 0.0 0.0 0.0 16.28999089631971 0.0 0.0 0.0 34.281931910070035" Properties=species:S:1:pos:R:3:initial_magmoms:R:1 pbc="T T T"
Si       1.70827596       0.99483030      -1.24899364       0.00000000
Si       1.38355022      -1.30639284       1.42110343       0.00000000
Si      -1.33750674       1.41359733       1.41974587       0.00000000
Si      -0.87544089      -1.70852778      -1.49791012       0.00000000
Si       0.12953808       1.84472847      -2.85736089       0.00000000
Si      -2.05780167       0.84776418      -2.96764593       0.00000000
Si      -2.67058260      -2.67450849      -0.11882467       0.00000000
Si       2.68300277      -2.70534546      -0.01194383       0.00000000
Si       0.02883330      -2.65440663       2.78542909       0.00000000
Si      -2.60335377       2.83529079       0.01648619       0.00000000
