10
Lattice="16.28999089631971 0.0 0.0 0.0 16.28999089631971 0.0 0.0 0.0 34.281931910070035" Properties=species:S:1:pos:R:3:initial_magmoms:R:1 pbc="T T T"
Si      -1.35042471      -1.35492075       1.36071235       0.00000000
Si       1.36622601       1.35959598       1.36043809       0.00000000
Si      -1.26584703       1.42169346      -1.40325967       0.00000000
Si       1.33750674      -1.41359733      -1.41974587       0.00000000
Si      -2.69707014      -2.71881729      -0.02114511       0.00000000
Si      -2.70940167       2.71419093      -0.00477890       0.00000000
Si      -2.70909216       0.00522909       2.72256285       0.00000000
Si       0.00752598      -2.71112841       2.72410554       0.00000000
Si       2.72105696      -2.71999017       0.00135757       0.00000000
Si       0.00433314       2.71777473       2.72376272       0.00000000
