10
Lattice="16.28999089631971 0.0 0.0 0.0 16.28999089631971 0.0 0.0 0.0 34.281931910070035" Properties=species:S:1:pos:R:3:initial_magmoms:R:1 pbc="T T T"
Si      -0.61397010       2.22202116       0.07401473       0.00000000
Si      -0.95408901      -1.38987909       1.58365473       0.00000000
Si      -0.97976205      -0.87182451      -1.94508934       0.00000000
Si       2.29094971      -0.51906456      -0.19053908       0.00000000
Si       2.32301657       0.47843730      -2.32616751       0.00000000
Si      -0.33472692      -0.08493606       3.40114665       0.00000000
Si       0.08262288      -3.38227641       0.63137069       0.00000000
Si       0.27639243       0.29670606      -3.51465419       0.00000000
Si      -2.83491612       2.12985234      -0.64066110       0.00000000
Si      -0.92020581      -3.17511648      -1.45036650       0.00000000
