10
Lattice="16.28999089631971 0.0 0.0 0.0 16.28999089631971 0.0 0.0 0.0 34.281931910070035" Properties=species:S:1:pos:R:3:initial_magmoms:R:1 pbc="T T T"
Si      -1.31538492      -1.32683679       1.40388018       0.00000000
Si       0.38724588      -0.85110363      -2.14831275       0.00000000
Si      -1.28560680       2.03468616       0.38776315       0.00000000
Si       2.29617391      -0.38791377       0.77504635       0.00000000
Si       0.40246074       3.30503642      -0.50480173       0.00000000
Si      -0.43730505      -0.33821298       3.35167779       0.00000000
Si       1.76756178      -1.13986017       2.96285190       0.00000000
Si      -0.16635348       0.93208122      -3.53964573       0.00000000
Si      -0.69414948      -2.89504251      -2.48215039       0.00000000
Si      -0.69566445      -3.60608472       1.27864821       0.00000000
