10
Lattice="16.28999089631971 0.0 0.0 0.0 16.28999089631971 0.0 0.0 0.0 34.281931910070035" Properties=species:S:1:pos:R:3:initial_magmoms:R:1 pbc="T T T"
Si      -1.14872193      -1.34255664       1.51563934       0.00000000
Si      -0.87807987      -0.98862381      -1.94779761       0.00000000
Si       2.20486683      -0.80164719      -0.38882589       0.00000000
Si      -0.56852100       2.35491498       0.17363808       0.00000000
Si       0.43730505       0.33821298      -3.35167779       0.00000000
Si      -3.15480285      -0.72650142      -1.46846737       0.00000000
Si       1.78826474      -3.08614050      -0.88454290       0.00000000
Si       1.52951601       3.36393387      -0.13843052       0.00000000
Si      -1.09846728      -0.30226095       3.54753058       0.00000000
Si      -3.36966795      -1.43472546       0.80096350       0.00000000
