10
Lattice="16.28999089631971 0.0 0.0 0.0 16.28999089631971 0.0 0.0 0.0 34.281931910070035" Properties=species:S:1:pos:R:3:initial_magmoms:R:1 pbc="T T T"
Si      -1.37572308      -1.08439272       1.60603197       0.00000000
Si       1.17853263       1.61034795       1.42759784       0.00000000
Si      -1.89907191       0.82378530      -1.43850495       0.00000000
Si       1.35716877      -2.07495504      -1.26781511       0.00000000
Si      -0.83017098      -3.07191933      -1.37810015       0.00000000
Si      -0.36111672       1.87388757      -2.90416120       0.00000000
Si       1.92204081       1.12497111      -2.75568607       0.00000000
Si      -2.66059683      -2.38381344       0.05670235       0.00000000
Si      -2.73077415       2.57665446       0.10843381       0.00000000
Si      -0.10987605      -2.50608618       3.00929164       0.00000000
