10
Lattice="16.28999089631971 0.0 0.0 0.0 16.28999089631971 0.0 0.0 0.0 34.281931910070035" Properties=species:S:1:pos:R:3:initial_magmoms:R:1 pbc="T T T"
Si       0.98450244      -0.38087649       2.06079092       0.00000000
Si      -2.22504947      -0.58797126       0.43404378       0.00000000
Si       0.18982737       2.28025791      -0.58406160       0.00000000
Si       1.46605113      -1.49578038      -1.21454096       0.00000000
Si       3.15822375       0.25650234       1.36308466       0.00000000
Si      -1.85207526      -2.91074607       0.30754338       0.00000000
Si      -1.81905543       2.97631332      -1.56318840       0.00000000
Si      -3.48639720      -0.45030447      -1.55533784       0.00000000
Si       3.70705014      -0.83305431      -0.68070242       0.00000000
Si       1.72357974       2.58315417      -2.33124124       0.00000000
