10
Lattice="16.28999089631971 0.0 0.0 0.0 16.28999089631971 0.0 0.0 0.0 34.281931910070035" Properties=species:S:1:pos:R:3:initial_magmoms:R:1 pbc="T T T"
Si      -1.20839220       1.38611610       1.40432927       0.00000000
Si       1.16657577       1.71729180      -1.11616513       0.00000000
Si       1.51453017      -1.33089300       1.34188813       0.00000000
Si      -1.77059268      -0.80870076      -1.54485926       0.00000000
Si      -2.47006084       2.68876224      -0.04943115       0.00000000
Si      -2.56213193       0.03152115       2.74053688       0.00000000
Si      -2.61711882      -2.73336426      -0.06136126       0.00000000
Si      -0.84629808       0.80637129      -3.63622968       0.00000000
Si       0.15535773      -2.67998193       2.73532602       0.00000000
Si      -0.60575994       3.58143795      -1.24442283       0.00000000
