10
Lattice="16.28999089631971 0.0 0.0 0.0 16.28999089631971 0.0 0.0 0.0 34.281931910070035" Properties=species:S:1:pos:R:3:initial_magmoms:R:1 pbc="T T T"
Si       1.35563262       1.35558864      -1.35691391       0.00000000
Si       1.35444345      -1.35899325       1.35835375       0.00000000
Si      -1.35911820       1.35285192       1.36047923       0.00000000
Si      -1.35894015      -1.35920502      -1.35701675       0.00000000
Si       0.02283369       2.70933651       2.71540478       0.00000000
Si       0.00994505      -2.70244584       2.72263827       0.00000000
Si      -0.00200041       2.71277370      -2.71427348       0.00000000
Si       2.71252446      -0.00167787      -2.71461630       0.00000000
Si       2.71392540       2.71562445       0.00034282       0.00000000
Si      -2.71575055       2.71401174       0.00113130       0.00000000
