10
Lattice="16.28999089631971 0.0 0.0 0.0 16.28999089631971 0.0 0.0 0.0 34.281931910070035" Properties=species:S:1:pos:R:3:initial_magmoms:R:1 pbc="T T T"
Si      -2.29094971       0.51906456       0.19053908       0.00000000
Si       0.03206687       0.99750186      -2.13562842       0.00000000
Si       0.05025465      -2.35304163       0.24662436       0.00000000
Si       1.58081581       1.13132421       1.39445264       0.00000000
Si       0.44866895       3.28199517      -1.63991141       0.00000000
Si      -2.20832683      -2.86321185       0.82190978       0.00000000
Si       1.27609507      -2.68405443       2.22205322       0.00000000
Si       1.95630031       3.16493523       0.17576356       0.00000000
Si      -3.27071176      -0.35275995      -1.75455026       0.00000000
Si      -3.24503872      -0.87081453       1.77419381       0.00000000
