10
Lattice="16.28999089631971 0.0 0.0 0.0 16.28999089631971 0.0 0.0 0.0 34.281931910070035" Properties=species:S:1:pos:R:3:initial_magmoms:R:1 pbc="T T T"
Si       0.00716760      -0.38485125      -2.33733284       0.00000000
Si       0.81559143       1.90936719       1.15326026       0.00000000
Si      -1.86430090      -0.89267571       1.19499168       0.00000000
Si       1.77233571      -1.86414615       0.12825769       0.00000000
Si       2.11017402       0.53978544       2.63194366       0.00000000
Si      -0.60263226      -2.19532185       2.64875210       0.00000000
Si      -0.24053814      -2.77506666      -2.39180686       0.00000000
Si       2.24836209       0.69248790      -2.94018095       0.00000000
Si       3.48544098      -0.78879438       1.34518434       0.00000000
Si       2.66892102       2.72795598      -0.13320907       0.00000000
