10
Lattice="16.2900001489832 0.0 0.0 0.0 16.2900001489832 0.0 0.0 0.0 29.33048724650998" Properties=species:S:1:pos:R:3:initial_magmoms:R:1 pbc="T T T"
Si       2.26092170      -0.65060632      -0.19463711       0.00000000
Si      -0.32314473       1.05018373       2.10651559       0.00000000
Si      -1.10269617       1.31830084      -1.78399756       0.00000000
Si      -0.56586574      -2.21654774       1.12500017       0.00000000
H        1.03272085       0.92851372       2.83141859       0.00000000
H        1.35654976       2.83519308      -0.95441405       0.00000000
Si      -1.63104930      -0.81938701       2.85778669       0.00000000
H        2.42015645       1.30751686      -2.10962463       0.00000000
Si      -1.89822811      -3.12693069      -0.56945141       0.00000000
Si       2.21154671      -1.70906537      -2.49581915       0.00000000
