10
Lattice="16.2900001489832 0.0 0.0 0.0 16.2900001489832 0.0 0.0 0.0 29.33048724650998" Properties=species:S:1:pos:R:3:initial_magmoms:R:1 pbc="T T T"
Si       1.37103157       1.34672201       1.40117604       0.00000000
Si       1.38407986      -1.37399635      -1.38067403       0.00000000
Si      -1.35417142       1.39134520      -1.39683512       0.00000000
Si      -1.34522821      -1.35685927       1.45388292       0.00000000
Si      -2.69881319      -2.68670972      -0.01621976       0.00000000
Si      -0.09793548       2.69690726       2.70849451       0.00000000
Si       2.72062550      -0.17215272       2.72248516       0.00000000
Si      -2.70839171       2.74286136      -0.07804843       0.00000000
Si       2.70229925      -2.75771784      -0.00695133       0.00000000
Si       2.72572427       2.73919611      -0.02469627       0.00000000
