10
Lattice="16.2900001489832 0.0 0.0 0.0 16.2900001489832 0.0 0.0 0.0 29.33048724650998" Properties=species:S:1:pos:R:3:initial_magmoms:R:1 pbc="T T T"
Si      -1.24317136       1.36228384      -1.46455922       0.00000000
Si       1.05461461       1.86096962       1.03873921       0.00000000
Si       1.46896705      -1.35018526      -1.30731848       0.00000000
Si      -1.66952954      -1.06416055       1.38733205       0.00000000
H       -0.57961450       0.77616964       2.83270913       0.00000000
H        2.83053414      -0.58497391       1.14629410       0.00000000
Si       2.30480696       0.29172132       2.26149789       0.00000000
Si      -2.61532694       2.57755043      -0.00985504       0.00000000
Si      -3.42888213       0.68087314       1.19372150       0.00000000
Si      -0.79260625       3.43863984       1.20856273       0.00000000
