10
Lattice="16.2900001489832 0.0 0.0 0.0 16.2900001489832 0.0 0.0 0.0 29.33048724650998" Properties=species:S:1:pos:R:3:initial_magmoms:R:1 pbc="T T T"
Si      -1.54836451       1.43613358      -0.97341677       0.00000000
Si       1.16825365      -1.29466503      -1.57287327       0.00000000
Si       1.45898128       1.36966549       1.23359387       0.00000000
Si      -1.45288882      -1.44526608       1.26432929       0.00000000
H       -2.66022218       1.47658491       0.11079202       0.00000000
Si       2.58092246      -2.67038812      -0.20742177       0.00000000
Si      -0.06142959       2.69314330       2.56517453       0.00000000
Si       2.61711884      -0.12686750       2.64242810       0.00000000
Si      -2.57105072       0.30857072      -2.76081667       0.00000000
Si      -0.34065648      -2.77270561      -2.67118270       0.00000000
