10
Lattice="16.2900001489832 0.0 0.0 0.0 16.2900001489832 0.0 0.0 0.0 29.33048724650998" Properties=species:S:1:pos:R:3:initial_magmoms:R:1 pbc="T T T"
Si      -0.86900635       2.13082976      -0.47286612       0.00000000
Si      -0.84216043      -1.14893371       1.88985128       0.00000000
Si       0.28694835      -1.09424818      -2.10941931       0.00000000
Si       2.18396774       0.55695511       0.82577054       0.00000000
Si       3.34277319      -1.09046890      -0.30623962       0.00000000
Si      -0.22123449       3.33242904       1.47579280       0.00000000
Si       0.32141799      -3.21533652       1.76103178       0.00000000
Si       0.43054470      -0.18513585       3.67851239       0.00000000
Si       2.59193450      -0.89964784      -2.56415919       0.00000000
H       -2.92472292      -2.36452610       0.46339237       0.00000000
