10
Lattice="16.2900001489832 0.0 0.0 0.0 16.2900001489832 0.0 0.0 0.0 29.33048724650998" Properties=species:S:1:pos:R:3:initial_magmoms:R:1 pbc="T T T"
Si      -1.70396660      -1.00875826       1.34194018       0.00000000
Si       0.94666078       1.76678084       1.31377118       0.00000000
Si       1.76220335      -1.78904927       0.01287608       0.00000000
Si      -0.64540981       0.24430113      -2.41818135       0.00000000
H        0.03829779      -2.66980070      -2.15276977       0.00000000
Si       2.35165700       0.40804821       2.69133325       0.00000000
Si       1.48771684      -0.27534987      -3.32839436       0.00000000
Si       1.52920747      -2.39013398      -2.30602157       0.00000000
Si      -2.45897552      -2.71186148      -0.15553957       0.00000000
Si      -0.41733351      -2.32691249       2.82541757       0.00000000
