10
Lattice="16.2900001489832 0.0 0.0 0.0 16.2900001489832 0.0 0.0 0.0 29.33048724650998" Properties=species:S:1:pos:R:3:initial_magmoms:R:1 pbc="T T T"
Si       1.06965028       1.40372560       1.45203510       0.00000000
Si       0.82458352      -2.14496948       0.28347916       0.00000000
Si      -1.96071329       0.11029959       1.25205984       0.00000000
Si       0.17280432       1.37259541      -1.91924043       0.00000000
Si      -1.63178561       2.74678725      -1.31356587       0.00000000
Si      -0.44812161      -3.10876734      -1.50518194       0.00000000
Si      -3.27349182       1.26887698      -0.26614484       0.00000000
Si      -0.22302639      -2.64798839       2.38626978       0.00000000
Si      -2.39057381      -2.15511815       1.57888946       0.00000000
Si       3.13458699      -1.76037887      -0.23490787       0.00000000
