10
Lattice="16.2900001489832 0.0 0.0 0.0 16.2900001489832 0.0 0.0 0.0 29.33048724650998" Properties=species:S:1:pos:R:3:initial_magmoms:R:1 pbc="T T T"
Si       1.33222879      -1.31297401      -1.49779066       0.00000000
Si      -1.30326517       1.42703659      -1.44886741       0.00000000
Si      -1.39613446      -1.48134745       1.31717352       0.00000000
Si       1.83112634       0.94537387       1.33465449       0.00000000
Si       2.62922231      -2.70001865      -0.05763441       0.00000000
Si       2.76258855       2.61174314      -0.18026517       0.00000000
Si      -2.74393650      -2.68928354      -0.19654360       0.00000000
Si       3.52325010      -0.93449215       1.31579499       0.00000000
Si      -2.65685015       0.09718614      -2.91897009       0.00000000
Si      -2.77151547       2.82716569      -0.19809811       0.00000000
