10
Lattice="16.2900001489832 0.0 0.0 0.0 16.2900001489832 0.0 0.0 0.0 29.33048724650998" Properties=species:S:1:pos:R:3:initial_magmoms:R:1 pbc="T T T"
Si       1.64074511      -0.84940948      -1.40402109       0.00000000
Si       1.31444011       1.27506718       1.43204637       0.00000000
Si      -1.35935653      -1.43622741       1.29802071       0.00000000
Si      -1.00271467       1.46427553      -1.57275939       0.00000000
Si       2.52553646       1.39330000      -1.94056370       0.00000000
Si       0.21999645      -1.62195622      -3.11961995       0.00000000
Si      -2.54395394       2.55265931      -0.14641779       0.00000000
Si       2.27235728       2.89929423      -0.01897782       0.00000000
Si      -0.08641845       2.58913262       2.72488439       0.00000000
Si       2.69265557      -0.18933867       2.68791918       0.00000000
