10
Lattice="16.2900001489832 0.0 0.0 0.0 16.2900001489832 0.0 0.0 0.0 29.33048724650998" Properties=species:S:1:pos:R:3:initial_magmoms:R:1 pbc="T T T"
Si       1.36549297       1.32147739       1.41663320       0.00000000
Si      -1.28140399       1.35982405      -1.47294774       0.00000000
Si       1.37095012      -1.29769073      -1.46323935       0.00000000
Si      -1.35469270      -1.39247410       1.42587231       0.00000000
Si      -2.67447593       2.68622102      -0.06628690       0.00000000
Si       2.71130762      -2.70508484      -0.05989286       0.00000000
Si       2.70982523       2.71500545      -0.01287608       0.00000000
Si       2.64715760      -0.18788886       2.80616504       0.00000000
Si      -2.72572427      -2.73919611       0.02469627       0.00000000
Si      -2.70835913       0.00061902      -2.77083647       0.00000000
