10
Lattice="16.2900001489832 0.0 0.0 0.0 16.2900001489832 0.0 0.0 0.0 29.33048724650998" Properties=species:S:1:pos:R:3:initial_magmoms:R:1 pbc="T T T"
Si      -1.64074511       0.84940948       1.40402109       0.00000000
Si      -1.42074865      -0.77254674      -1.71559886       0.00000000
Si       1.04923891      -1.93261092       0.97817175       0.00000000
Si       0.88479136       2.24270948      -0.53654260       0.00000000
Si       0.30434607      -2.17968347      -2.65851536       0.00000000
Si      -2.64345977       2.31368501      -0.16873829       0.00000000
Si      -0.32630499       2.12447666       2.83606747       0.00000000
Si       2.14260743      -0.98373030       2.81189915       0.00000000
Si      -1.03998619       2.94187629      -1.96009780       0.00000000
Si      -3.23384033      -2.13113927      -0.63911132       0.00000000
