10
Lattice="16.2900001489832 0.0 0.0 0.0 16.2900001489832 0.0 0.0 0.0 29.33048724650998" Properties=species:S:1:pos:R:3:initial_magmoms:R:1 pbc="T T T"
Si       1.15880545      -1.64742401      -1.13201016       0.00000000
Si       0.83724085       2.04783221      -0.87463513       0.00000000
Si      -2.18396774      -0.55695511      -0.82577054       0.00000000
Si       0.55658044      -0.35750034       2.33435482       0.00000000
Si      -1.75342304      -0.74209096       2.85274185       0.00000000
Si       3.11512044       1.49586184      -0.72158865       0.00000000
Si       3.36238635      -0.88229899      -0.91886550       0.00000000
Si      -3.02612817      -1.70588882       1.06408075       0.00000000
Si      -3.05297409       1.57387465      -1.29863665       0.00000000
Si       0.39504879      -3.66821481      -0.03871624       0.00000000
