10
Lattice="16.2900001489832 0.0 0.0 0.0 16.2900001489832 0.0 0.0 0.0 29.33048724650998" Properties=species:S:1:pos:R:3:initial_magmoms:R:1 pbc="T T T"
Si       0.82233550      -1.19057095       1.84870061       0.00000000
Si      -1.84353932       1.28500408       0.69299142       0.00000000
Si      -1.12832686      -1.55149219      -1.51791138       0.00000000
Si       1.75549187       1.51480711      -0.83908658       0.00000000
H        0.27671823      -2.93594673       0.07438212       0.00000000
Si       1.79398514      -2.87736789       0.39775074       0.00000000
Si      -2.62488917       1.91245416      -1.39020643       0.00000000
Si       1.52772508       0.49192542       3.26401394       0.00000000
Si       0.86713300       2.11584133      -2.89351123       0.00000000
Si       0.58438747      -1.92904553      -3.10513069       0.00000000
