10
Lattice="16.2900001489832 0.0 0.0 0.0 16.2900001489832 0.0 0.0 0.0 29.33048724650998" Properties=species:S:1:pos:R:3:initial_magmoms:R:1 pbc="T T T"
Si       1.50544036       1.21982779       1.31957862       0.00000000
Si       1.42078123      -1.16942979      -1.46373797       0.00000000
Si      -1.28166463       1.50936625      -1.38953183       0.00000000
Si      -0.77473612      -1.95308142       1.21709790       0.00000000
H       -2.64028322      -0.43937388       1.07331985       0.00000000
Si       2.72575686      -2.59646312      -0.09024991       0.00000000
Si       2.64557747       2.68095935      -0.15888325       0.00000000
Si       0.20110005       2.70404228       2.65561165       0.00000000
Si      -2.65225637      -2.72345996      -0.05898361       0.00000000
Si       0.06415002      -2.51719598      -2.86605789       0.00000000
