10
Lattice="16.2900001489832 0.0 0.0 0.0 16.2900001489832 0.0 0.0 0.0 29.33048724650998" Properties=species:S:1:pos:R:3:initial_magmoms:R:1 pbc="T T T"
Si       0.10088397      -0.91766458      -1.20266730       0.00000000
Si      -1.49693698       0.49316346      -2.43727550       0.00000000
Si      -0.75686599      -2.85029554      -0.18484073       0.00000000
Si       1.27571878       2.49406418      -1.16925987       0.00000000
Si      -2.05465772       2.16823160       0.69219950       0.00000000
Si       0.14892318       2.93335662       0.90534415       0.00000000
Si      -2.74445778      -1.68042755       0.22974571       0.00000000
Si      -2.81841438       0.14744079       1.78549341       0.00000000
Si       2.21692241      -2.12959661      -1.53187269       0.00000000
Si       1.87561433       0.07582995       3.11894535       0.00000000
