10
Lattice="16.2900001489832 0.0 0.0 0.0 16.2900001489832 0.0 0.0 0.0 29.33048724650998" Properties=species:S:1:pos:R:3:initial_magmoms:R:1 pbc="T T T"
H       -0.10088397       0.91766458       1.20266730       0.00000000
Si      -0.85774996      -1.93263096       1.01782657       0.00000000
Si       2.11603844      -1.21193203      -0.32920539       0.00000000
Si      -1.59782095       1.41082804      -1.23460820       0.00000000
Si      -2.84534175      -0.76276297       1.43241301       0.00000000
Si       0.12181662       2.71505432      -2.06378107       0.00000000
Si       1.17483481       3.41172876       0.03340743       0.00000000
Si       3.08601021      -0.06882525      -2.17130664       0.00000000
Si       1.42615693       1.23083983      -3.39981410       0.00000000
Si      -2.18688365      -2.79002091      -1.67946370       0.00000000
