10
Lattice="16.2900001489832 0.0 0.0 0.0 16.2900001489832 0.0 0.0 0.0 29.33048724650998" Properties=species:S:1:pos:R:3:initial_magmoms:R:1 pbc="T T T"
Si       1.34907265       1.36708939       1.40187997       0.00000000
Si       1.39838248      -1.35711991      -1.36861920       0.00000000
Si      -1.37267686       1.38245086      -1.39067572       0.00000000
Si      -1.34433226      -1.39352806       1.42950929       0.00000000
Si       2.58290984      -0.22193496       2.66015787       0.00000000
Si      -2.62311356       0.13994739       2.73283882       0.00000000
Si      -2.70982523      -2.71500545       0.01287608       0.00000000
Si       2.73191447       2.70265763      -0.01419596       0.00000000
Si      -2.68188788       2.76848553       0.00313836       0.00000000
Si       2.73201221      -2.75046879      -0.02396301       0.00000000
