10
Lattice="16.2900001489832 0.0 0.0 0.0 16.2900001489832 0.0 0.0 0.0 29.33048724650998" Properties=species:S:1:pos:R:3:initial_magmoms:R:1 pbc="T T T"
Si       1.00163953       2.09313470      -0.13609346       0.00000000
Si      -1.00872568       0.15705189       2.15250580       0.00000000
Si       1.94083949      -1.33638274       0.39895329       0.00000000
Si      -1.22929228      -0.15703560      -2.11373089       0.00000000
H       -2.92361520      -0.49415715      -0.20358291       0.00000000
H        2.07477587      -1.65755639      -2.06774069       0.00000000
Si       1.91588321       1.68528197      -2.27240883       0.00000000
Si       2.12310830      -1.00721071       2.74237123       0.00000000
Si       0.58733596       0.28494468      -3.61040700       0.00000000
Si      -3.38558331      -0.81976168       1.21173042       0.00000000
