10
Lattice="16.2900001489832 0.0 0.0 0.0 16.2900001489832 0.0 0.0 0.0 29.33048724650998" Properties=species:S:1:pos:R:3:initial_magmoms:R:1 pbc="T T T"
Si      -1.28337671      -1.76239883       0.73173700       0.00000000
Si       1.61345773      -0.61307416      -1.58314238       0.00000000
Si       0.91116324       1.15979914       1.83142495       0.00000000
Si      -1.70344694       1.13319757      -1.21709790       0.00000000
Si       1.77961573       2.66825315       0.26919521       0.00000000
Si       2.04331825       1.65234359      -1.90997200       0.00000000
Si      -2.16950385      -0.67199509      -2.70380164       0.00000000
Si      -2.17755111      -2.55958256      -1.29367980       0.00000000
Si      -3.48635488       0.89777449       0.34700899       0.00000000
H       -0.49073137      -0.25181082       3.59544845       0.00000000
