10
Lattice="16.2900001489832 0.0 0.0 0.0 16.2900001489832 0.0 0.0 0.0 29.33048724650998" Properties=species:S:1:pos:R:3:initial_magmoms:R:1 pbc="T T T"
Si      -1.45265099       0.16299774       0.34639305       0.00000000
H       -1.28276258       1.97219774      -0.02340573       0.00000000
Si       1.40189461       1.41160996      -1.76402349       0.00000000
Si      -0.11513121       2.92078074      -0.67166816       0.00000000
Si      -2.55036894      -0.50435469      -1.62411707       0.00000000
Si       3.16072592       0.41899509      -0.44775922       0.00000000
Si      -2.04327752      -0.90803719       2.36699965       0.00000000
Si      -0.79264534      -1.51058800      -2.86371145       0.00000000
Si       2.86041977      -1.86101849       0.62843502       0.00000000
Si       0.49073137       0.25181082      -3.59544845       0.00000000
