10
Lattice="16.2900001489832 0.0 0.0 0.0 16.2900001489832 0.0 0.0 0.0 29.33048724650998" Properties=species:S:1:pos:R:3:initial_magmoms:R:1 pbc="T T T"
Si      -1.64747288      -0.96249466      -1.29626088       0.00000000
Si       1.71963758       1.30422628      -0.82917287       0.00000000
Si      -1.30855942       1.86588920       0.87155543       0.00000000
Si       1.59782095      -1.41082804       1.23460820       0.00000000
H        1.49693698      -0.49316346       2.43727550       0.00000000
H       -1.12174570      -1.83918989      -2.41146467       0.00000000
Si      -2.23194179      -2.33976856       0.50920659       0.00000000
Si       0.40047336       2.91043659      -2.04134325       0.00000000
Si      -0.55772074       1.67506814       3.12947500       0.00000000
Si       2.77265577       2.00090072       1.26801562       0.00000000
