10
Lattice="16.2900001489832 0.0 0.0 0.0 16.2900001489832 0.0 0.0 0.0 29.33048724650998" Properties=species:S:1:pos:R:3:initial_magmoms:R:1 pbc="T T T"
Si      -1.29921825      -1.37432215      -1.36297014       0.00000000
Si       1.35876357      -1.40084227       1.28482199       0.00000000
Si      -1.36237816       1.34257294       1.36049465       0.00000000
Si       1.30544640       1.37458279      -1.39569710       0.00000000
Si       2.72604845      -0.08451252       2.60680572       0.00000000
Si      -2.68689054      -0.11253132       2.67139145       0.00000000
Si      -2.52711822      -0.02713914      -2.83089650       0.00000000
Si      -2.69325993       2.67765248      -0.11477020       0.00000000
Si       2.70928604       2.66996360      -0.01736365       0.00000000
Si       0.01103485      -2.80756524       2.56990796       0.00000000
