10
Lattice="16.2900001489832 0.0 0.0 0.0 16.2900001489832 0.0 0.0 0.0 29.33048724650998" Properties=species:S:1:pos:R:3:initial_magmoms:R:1 pbc="T T T"
Si       1.36839259       1.32743953       1.37005639       0.00000000
Si      -1.33362973       1.39334887      -1.34465619       0.00000000
Si      -1.37389861      -1.32185532       1.37926616       0.00000000
Si       1.36088290      -1.34273421      -1.37765299       0.00000000
Si      -0.14910237       2.52853382       2.68412088       0.00000000
Si      -2.73052982      -2.66962151      -0.02305376       0.00000000
Si       2.75606489       0.06564870      -2.66430520       0.00000000
Si       2.72820035      -0.10811673       2.70265775       0.00000000
Si       2.70285554      -2.74097172      -0.04557958       0.00000000
Si       0.03209130      -2.68786631      -2.77227659       0.00000000
