10
Lattice="16.2900001489832 0.0 0.0 0.0 16.2900001489832 0.0 0.0 0.0 29.33048724650998" Properties=species:S:1:pos:R:3:initial_magmoms:R:1 pbc="T T T"
Si      -0.43499187      -2.26307198       0.02953580       0.00000000
Si       0.18226881       0.32917203       2.34341794       0.00000000
Si       2.16658631       0.58301911      -0.78899011       0.00000000
Si      -1.94083949       1.33638274      -0.39895329       0.00000000
H        0.13393638      -0.32117364      -2.46669398       0.00000000
Si       3.06076071       1.38020284       1.23642669       0.00000000
Si      -0.93919996       3.42951744      -0.53504675       0.00000000
Si       1.30303711       2.38643615       2.47602107       0.00000000
Si      -2.94956517       1.49343463       1.75355251       0.00000000
Si      -2.53412129      -2.57315213       1.13033832       0.00000000
