10
Lattice="16.2900001489832 0.0 0.0 0.0 16.2900001489832 0.0 0.0 0.0 29.33048724650998" Properties=species:S:1:pos:R:3:initial_magmoms:R:1 pbc="T T T"
Si      -1.33926607      -1.31647636       1.44081326       0.00000000
Si      -1.72118513       0.99083926      -1.32229169       0.00000000
Si       1.35638686       1.40779810       1.36936419       0.00000000
Si       1.52252857      -1.29699352      -1.34676212       0.00000000
Si      -2.65209347      -2.57768075      -0.06406072       0.00000000
Si       2.75042855      -2.64417653       0.12116424       0.00000000
Si      -0.65277289       1.82972540      -3.34642088       0.00000000
Si      -0.00563634      -2.70982523       2.78546944       0.00000000
Si      -2.77242771       2.73083933      -0.04336513       0.00000000
Si      -3.54033831      -0.77165731      -1.43695630       0.00000000
