10
Lattice="16.2900001489832 0.0 0.0 0.0 16.2900001489832 0.0 0.0 0.0 29.33048724650998" Properties=species:S:1:pos:R:3:initial_magmoms:R:1 pbc="T T T"
Si      -1.93715795      -0.64417177       1.14300909       0.00000000
Si       1.12076830       2.05726412       0.13260313       0.00000000
Si      -0.18226881      -0.32917203      -2.34341794       0.00000000
Si       1.62131113      -1.15230574       1.31922666       0.00000000
H       -1.59972688      -2.05076441       1.71190322       0.00000000
Si       2.87849190       1.05103081      -1.10699125       0.00000000
Si      -3.13183398       1.16426260      -0.58986543       0.00000000
Si      -0.61726069      -2.59224401      -2.31388214       0.00000000
Si      -2.12310830       1.00721071      -2.74237123       0.00000000
Si      -1.63400104       0.33739848       3.21855169       0.00000000
