10
Lattice="16.2900001489832 0.0 0.0 0.0 16.2900001489832 0.0 0.0 0.0 29.33048724650998" Properties=species:S:1:pos:R:3:initial_magmoms:R:1 pbc="T T T"
Si      -0.29493045       2.13392486       0.91027167       0.00000000
Si      -1.79698250      -0.61085872      -1.38674544       0.00000000
Si       0.44525457      -1.65394001       1.62432238       0.00000000
Si       1.78290794       0.23542308      -1.56410689       0.00000000
H       -0.18226881       1.74882926      -2.99376283       0.00000000
Si       2.20297817      -2.66017331       0.38472800       0.00000000
Si      -1.99343990       2.90136306      -0.53569202       0.00000000
Si       3.48635488      -0.89777449      -0.34700899       0.00000000
Si       1.31685103      -1.56976957      -3.05081063       0.00000000
Si      -3.40465890       1.03408921      -1.00046292       0.00000000
