10
Lattice="16.2900001489832 0.0 0.0 0.0 16.2900001489832 0.0 0.0 0.0 29.33048724650998" Properties=species:S:1:pos:R:3:initial_magmoms:R:1 pbc="T T T"
Si       1.33672483       1.34081362       1.39516035       0.00000000
Si       1.71305642      -1.02395683      -1.27336844       0.00000000
Si      -1.36363591      -1.43197246       1.33157186       0.00000000
Si      -1.29415906       1.39230631      -1.45786894       0.00000000
Si       2.68830614       2.60905529      -0.13029189       0.00000000
Si      -2.69729822       2.66504402      -0.03018987       0.00000000
Si       3.44110126       0.73252873      -1.49576686       0.00000000
Si      -0.03805344       2.65639403       2.77900207       0.00000000
Si       0.78517801      -1.80509492      -3.30780729       0.00000000
Si      -2.70428663      -0.04932612       2.77114150       0.00000000
