10
Lattice="16.2900001489832 0.0 0.0 0.0 16.2900001489832 0.0 0.0 0.0 29.33048724650998" Properties=species:S:1:pos:R:3:initial_magmoms:R:1 pbc="T T T"
H        0.30281481       0.65932147       1.32122113       0.00000000
Si      -0.39765519      -2.10821924       0.79192316       0.00000000
Si      -2.26336520       0.44509167      -0.30571167       0.00000000
Si       1.76199158       0.26383284      -1.58584078       0.00000000
H        0.52905033       2.57220731      -0.11541547       0.00000000
H        2.28037196       1.72120142      -1.41513735       0.00000000
Si       1.80193466      -2.65927736       1.26417333       0.00000000
Si       1.81260461       3.06041862       0.52648225       0.00000000
Si      -2.62140311      -0.35225496      -2.48490821       0.00000000
Si      -1.31189887      -1.70036651       2.92823852       0.00000000
