10
Lattice="16.2900001489832 0.0 0.0 0.0 16.2900001489832 0.0 0.0 0.0 29.33048724650998" Properties=species:S:1:pos:R:3:initial_magmoms:R:1 pbc="T T T"
Si       1.56649528      -0.25244613      -1.86568296       0.00000000
Si       1.80911855      -1.06873804       1.26502391       0.00000000
Si      -1.68847481      -1.77404618       0.16970620       0.00000000
Si      -0.84993076       2.36477045       0.48263317       0.00000000
Si      -0.02940345       1.40370931       2.99276560       0.00000000
Si       2.17645805       0.64837459       2.81455356       0.00000000
Si       3.38603291      -1.17058312      -0.53176173       0.00000000
Si      -0.94293037      -3.01905831      -1.77675293       0.00000000
Si      -1.24813981      -2.38016450       2.45235137       0.00000000
Si       0.24276987      -1.60783930      -3.28642243       0.00000000
