10
Lattice="16.2900001489832 0.0 0.0 0.0 16.2900001489832 0.0 0.0 0.0 29.33048724650998" Properties=species:S:1:pos:R:3:initial_magmoms:R:1 pbc="T T T"
Si      -1.30489759      -1.32680422      -1.45332858       0.00000000
Si       1.30425886      -1.37140624       1.42452310       0.00000000
Si       1.23504265       1.33143058      -1.55389988       0.00000000
Si      -1.39931101       1.36645408       1.37914884       0.00000000
Si      -2.40710816       0.39871404      -2.65289564       0.00000000
Si      -0.67906332       2.15519960      -2.87529406       0.00000000
Si       2.60754032       2.73737162      -0.10793619       0.00000000
Si       2.67058262      -2.70083315       0.02146992       0.00000000
Si      -2.73196334      -2.69314427      -0.07593663       0.00000000
Si       2.67594203      -0.00825903       2.75378079       0.00000000
