10
Lattice="16.2900001489832 0.0 0.0 0.0 16.2900001489832 0.0 0.0 0.0 29.33048724650998" Properties=species:S:1:pos:R:3:initial_magmoms:R:1 pbc="T T T"
Si       0.13422960      -1.84930598      -1.41064978       0.00000000
Si      -2.30443229       0.55105812       0.12661971       0.00000000
Si       0.77994892       0.28616643       2.23873743       0.00000000
Si       1.08934489       1.71344086      -1.26121095       0.00000000
Si      -2.11517507       2.36367902       1.58340635       0.00000000
Si      -1.11935107       1.15739474       3.32091509       0.00000000
Si       2.39894687       2.01655378       1.97974923       0.00000000
Si       1.42356682       3.45543483       0.32618435       0.00000000
Si      -0.21900276       1.87279127      -3.27483689       0.00000000
Si       2.34009110      -2.60464070      -1.58886182       0.00000000
