10
Lattice="16.2900001489832 0.0 0.0 0.0 16.2900001489832 0.0 0.0 0.0 29.33048724650998" Properties=species:S:1:pos:R:3:initial_magmoms:R:1 pbc="T T T"
Si      -1.89929999       0.87122830       1.08217766       0.00000000
Si       0.84172060      -1.79331725       1.30945960       0.00000000
Si       1.61899795       1.73038735      -0.25898820       0.00000000
Si      -0.77994892      -0.28616643      -2.23873743       0.00000000
Si      -2.89512399       2.07751259      -0.65533108       0.00000000
Si       3.13072300      -1.29696094       1.43264765       0.00000000
Si       3.33607963       0.66631802      -1.49699874       0.00000000
H        3.29605184       0.19114686       1.71911852       0.00000000
Si      -3.08438121       0.26489169      -2.11211772       0.00000000
Si       0.64361791       3.16926840      -1.91255308       0.00000000
