10
Lattice="16.2900001489832 0.0 0.0 0.0 16.2900001489832 0.0 0.0 0.0 29.33048724650998" Properties=species:S:1:pos:R:3:initial_magmoms:R:1 pbc="T T T"
Si       1.75936889       1.21575040      -0.95585125       0.00000000
Si       0.96673006      -2.17836398      -0.23960075       0.00000000
Si      -0.72803269      -0.78910390       2.18078039       0.00000000
Si      -1.75068632       0.07781733      -1.69703266       0.00000000
H       -1.39463578       2.63308304      -0.29092910       0.00000000
Si      -2.23694282      -2.26714448       1.08247096       0.00000000
Si      -3.40917123      -0.81432082      -0.32809083       0.00000000
Si      -1.05508702      -3.42842601      -0.58133026       0.00000000
Si       1.47131281       0.99519683      -3.31883262       0.00000000
Si      -1.14622957      -1.36891387      -3.47660131       0.00000000
