10
Lattice="16.2900001489832 0.0 0.0 0.0 16.2900001489832 0.0 0.0 0.0 29.33048724650998" Properties=species:S:1:pos:R:3:initial_magmoms:R:1 pbc="T T T"
Si      -1.32879160      -1.34513210      -1.39462361       0.00000000
Si       1.34197264      -1.39823750       1.33207341       0.00000000
Si      -1.36088290       1.34273421       1.37765299       0.00000000
Si       1.39518199       1.40838291      -1.28665222       0.00000000
Si      -2.48692916       0.15140089      -2.80345783       0.00000000
Si       2.70543508      -0.02486017       2.64622589       0.00000000
Si      -2.71837748      -2.68605975      -0.00255175       0.00000000
Si       0.00750969       2.67017375       2.74770938       0.00000000
Si      -2.69451263       2.73608309       0.03299680       0.00000000
Si       0.05414796      -2.59504752      -2.86811689       0.00000000
