10
Lattice="16.2900001489832 0.0 0.0 0.0 16.2900001489832 0.0 0.0 0.0 29.33048724650998" Properties=species:S:1:pos:R:3:initial_magmoms:R:1 pbc="T T T"
Si       1.32799502       1.39619962       1.40932991       0.00000000
Si      -1.38412873       1.39703041      -1.36351569       0.00000000
Si       1.39931101      -1.36645408      -1.37914884       0.00000000
Si      -1.33467229      -1.40206402       1.42041684       0.00000000
Si       2.64186335      -0.06413373       2.72876188       0.00000000
Si      -2.69477327      -2.72409527      -0.02921317       0.00000000
Si       2.70356987      -2.73786033       0.04537426       0.00000000
Si      -2.66862782       0.00376299       2.77921032       0.00000000
Si       2.72894969       2.72233595       0.00633539       0.00000000
Si      -2.75890701       2.71261082       0.02032603       0.00000000
