10
Lattice="16.2900001489832 0.0 0.0 0.0 16.2900001489832 0.0 0.0 0.0 29.33048724650998" Properties=species:S:1:pos:R:3:initial_magmoms:R:1 pbc="T T T"
Si      -0.73591705       1.77220541       1.30121774       0.00000000
Si      -0.87107518       0.41091525      -2.15144990       0.00000000
Si      -0.71978995      -2.17940654       0.65993596       0.00000000
Si       2.39369823       0.24667947       0.17601225       0.00000000
H       -2.99050194      -0.29822103      -0.03232220       0.00000000
Si      -0.14916753      -1.55445697      -3.10034982       0.00000000
Si       0.02687850      -3.26476038      -1.31679222       0.00000000
Si      -3.07138179      -1.78238666       0.36592716       0.00000000
Si       0.06157620       3.68940810       0.13975977       0.00000000
Si       3.18306603      -1.97537429       0.03812963       0.00000000
