10
Lattice="16.2900001489832 0.0 0.0 0.0 16.2900001489832 0.0 0.0 0.0 29.33048724650998" Properties=species:S:1:pos:R:3:initial_magmoms:R:1 pbc="T T T"
Si       0.89417440       0.79718374       2.02541680       0.00000000
Si       0.00804726       1.88758748      -1.41012184       0.00000000
Si      -2.16658631      -0.58301911       0.78899011       0.00000000
Si       1.35363548      -1.83731654      -0.71393339       0.00000000
H       -2.03264993      -0.90419275      -1.67770387       0.00000000
Si       1.32884813      -2.83371069       1.42663490       0.00000000
Si       2.17755111       2.55958256       1.29367980       0.00000000
Si       1.66954583      -1.13121019       3.11557235       0.00000000
Si      -1.98431750      -0.25384707       3.13240805       0.00000000
Si       0.47410416       3.69278013       0.07658190       0.00000000
