10
Lattice="16.2900001489832 0.0 0.0 0.0 16.2900001489832 0.0 0.0 0.0 29.33048724650998" Properties=species:S:1:pos:R:3:initial_magmoms:R:1 pbc="T T T"
Si      -1.60409586       0.78690475      -1.57123420       0.00000000
Si       1.02306088      -2.14961213       0.38185361       0.00000000
Si      -1.75308420      -0.71785144       1.56642400       0.00000000
Si       1.93702763       1.48761910      -0.37578220       0.00000000
Si      -0.96371641      -2.93990520       1.42854138       0.00000000
Si       1.55429407      -2.56339442      -1.86087276       0.00000000
Si       2.71062344       1.52036200       1.83418202       0.00000000
Si      -0.86721445       0.29613591       3.51355773       0.00000000
Si      -2.50829187       2.62303211      -0.26661413       0.00000000
Si      -0.34106373       2.11787921      -3.07172327       0.00000000
