10
Lattice="16.2900001489832 0.0 0.0 0.0 16.2900001489832 0.0 0.0 0.0 29.33048724650998" Properties=species:S:1:pos:R:3:initial_magmoms:R:1 pbc="T T T"
Si      -1.41913594      -1.29360520      -1.37635658       0.00000000
Si      -1.38293956       1.24991542       1.47349329       0.00000000
Si       1.24709725      -1.50972463       1.39578216       0.00000000
Si       1.00823698       1.80781046      -1.28930369       0.00000000
Si      -2.54107712       2.74644841       0.06465906       0.00000000
Si       2.67276060       2.72697535       0.12187404       0.00000000
Si      -2.73536795      -2.72647361       0.06820512       0.00000000
Si      -0.05414796       2.59504752       2.86811689       0.00000000
Si       2.67028452      -0.16234614       2.80191798       0.00000000
Si       1.99989237      -3.38625120       0.03030719       0.00000000
