10
Lattice="16.2900001489832 0.0 0.0 0.0 16.2900001489832 0.0 0.0 0.0 29.33048724650998" Properties=species:S:1:pos:R:3:initial_magmoms:R:1 pbc="T T T"
Si       2.28900240       0.49635630       0.12318805       0.00000000
Si      -0.84172060       1.79331725      -1.30945960       0.00000000
Si       0.27807030      -2.05627043      -1.17714978       0.00000000
Si      -0.74284030       0.37260117       2.24586474       0.00000000
H        2.45433124       1.98446411       0.40965892       0.00000000
H       -1.00548397      -2.54448173      -1.81904749       0.00000000
Si       2.95192559       0.24689124      -2.10824609       0.00000000
H       -2.60169221      -2.54366723       0.86401749       0.00000000
Si       3.25581717      -0.79180804       1.82975312       0.00000000
Si      -2.74102059       2.66454555      -0.22728195       0.00000000
