10
Lattice="16.2900001489832 0.0 0.0 0.0 16.2900001489832 0.0 0.0 0.0 29.33048724650998" Properties=species:S:1:pos:R:3:initial_magmoms:R:1 pbc="T T T"
Si      -2.22186480      -0.73402741       0.01504654       0.00000000
Si       0.62924361      -0.80203816      -2.14382397       0.00000000
Si       0.45679604       2.24922874      -0.63682354       0.00000000
Si       1.10269617      -1.31830084       1.78399756       0.00000000
Si      -0.54343441       2.27232959       1.53946928       0.00000000
H        2.45924594       1.51689223       0.82958350       0.00000000
H        2.15411794      -0.62330428      -2.16362205       0.00000000
H        3.52285263      -0.01078398      -0.32562707       0.00000000
Si      -1.88021462      -3.00863271      -0.32040624       0.00000000
Si      -0.18656937      -2.98914987      -1.95443702       0.00000000
