10
Lattice="16.2900001489832 0.0 0.0 0.0 16.2900001489832 0.0 0.0 0.0 29.33048724650998" Properties=species:S:1:pos:R:3:initial_magmoms:R:1 pbc="T T T"
Si      -1.40085856       1.31406544       1.29283802       0.00000000
Si      -1.31444011      -1.27506718      -1.43204637       0.00000000
Si       1.37821546      -1.46440585       1.25587280       0.00000000
Si       0.95791717       1.62422704      -1.45102420       0.00000000
Si       0.32630499      -2.12447666      -2.83606747       0.00000000
Si       1.21109635       0.11823282      -3.37261007       0.00000000
Si       0.00298107       2.60944625       2.67117147       0.00000000
Si      -2.53956052       2.72648990      -0.28007976       0.00000000
Si       2.80517061      -0.10520082       2.55376153       0.00000000
Si      -2.31715478       0.18920835      -3.00480576       0.00000000
