10
Lattice="16.2900001489832 0.0 0.0 0.0 16.2900001489832 0.0 0.0 0.0 29.33048724650998" Properties=species:S:1:pos:R:3:initial_magmoms:R:1 pbc="T T T"
Si      -1.24264194       1.29286857      -1.49761468       0.00000000
Si       1.04601349       1.58947689       1.39117434       0.00000000
Si       1.46825029      -1.40012910      -1.25076930       0.00000000
Si      -1.77357051      -0.83721185       1.36812058       0.00000000
Si      -0.71333911       3.33451058       1.19756379       0.00000000
Si      -2.58075956       2.55234622      -0.06352984       0.00000000
Si      -0.55386001      -1.38882384       3.37013165       0.00000000
Si       1.40338351       0.17709315       3.45741918       0.00000000
Si      -2.67030569      -2.65774969       0.09919571       0.00000000
Si       2.71554302       2.65363744       0.00384229       0.00000000
