10
Lattice="16.2900001489832 0.0 0.0 0.0 16.2900001489832 0.0 0.0 0.0 29.33048724650998" Properties=species:S:1:pos:R:3:initial_magmoms:R:1 pbc="T T T"
Si       1.47911572       1.49087710      -0.97324423       0.00000000
Si      -2.27413778       0.51447078      -0.11940441       0.00000000
Si       0.80648533      -0.09343944       2.26815591       0.00000000
Si       0.20916360      -1.64795343      -1.77918736       0.00000000
H       -0.22667535      -2.56432295       1.07490370       0.00000000
H        0.94170862       1.60476049      -2.40005511       0.00000000
Si       3.24166116      -0.25696172      -1.16579888       0.00000000
H       -1.35161389       2.48381777       2.22410152       0.00000000
Si      -2.38290611       2.49315194       1.10857510       0.00000000
Si       2.72165177      -1.46403933       2.08073410       0.00000000
