10
Lattice="16.2900001489832 0.0 0.0 0.0 16.2900001489832 0.0 0.0 0.0 29.33048724650998" Properties=species:S:1:pos:R:3:initial_magmoms:R:1 pbc="T T T"
H        1.05432139       0.05963769       1.10995363       0.00000000
Si       0.06871122       2.20214738      -0.72546027       0.00000000
Si       0.72718561      -1.80164958      -1.34726660       0.00000000
Si      -2.08164862      -0.56229823       0.98729353       0.00000000
H        0.21561444       1.05228514      -3.09876598       0.00000000
Si       1.96424822      -2.58902511       0.51155303       0.00000000
Si       0.35572473       3.22152672       1.41176434       0.00000000
Si      -2.91735984      -1.82772336      -0.83788403       0.00000000
Si       3.50674833      -0.76773142       0.48723805       0.00000000
Si       2.29817693       2.26787753      -1.67230706       0.00000000
