10
Lattice="16.2900001489832 0.0 0.0 0.0 16.2900001489832 0.0 0.0 0.0 29.33048724650998" Properties=species:S:1:pos:R:3:initial_magmoms:R:1 pbc="T T T"
Si       1.40085856      -1.31406544      -1.29283802       0.00000000
Si      -1.30544640      -1.37458279       1.39569710       0.00000000
Si       1.40383963       1.29538081       1.37833345       0.00000000
Si      -1.13870196       1.41242446      -1.57291777       0.00000000
Si       2.35877573       0.31016160      -2.74386221       0.00000000
Si      -2.57164058       2.66940974      -0.09646504       0.00000000
Si       0.08641845      -2.58913262      -2.72488439       0.00000000
Si      -2.45753549      -0.03647331      -2.87130218       0.00000000
Si      -2.60466465      -2.74890495       0.03272696       0.00000000
Si       0.74236789       2.25303734      -2.97055655       0.00000000
