10
Lattice="16.2900001489832 0.0 0.0 0.0 16.2900001489832 0.0 0.0 0.0 29.33048724650998" Properties=species:S:1:pos:R:3:initial_magmoms:R:1 pbc="T T T"
Si       1.37168317       1.36314721       1.32925768       0.00000000
Si       1.36632376      -1.32942691      -1.40305319       0.00000000
Si      -1.30425886       1.37140624      -1.42452310       0.00000000
Si      -1.36731257      -1.33970590       1.43185573       0.00000000
Si       2.68903919      -0.13636359       2.66526138       0.00000000
Si      -0.06170652       2.67372659       2.68338762       0.00000000
Si      -2.70534043      -2.65681757      -0.02519489       0.00000000
Si      -0.03751587      -2.62480772      -2.78138664       0.00000000
Si      -2.70356987       2.73786033      -0.04537426       0.00000000
Si       2.70378164       2.75121813      -0.10919740       0.00000000
