10
Lattice="16.2900001489832 0.0 0.0 0.0 16.2900001489832 0.0 0.0 0.0 29.33048724650998" Properties=species:S:1:pos:R:3:initial_magmoms:R:1 pbc="T T T"
Si       2.23362943      -0.56689201       0.17328452       0.00000000
Si      -0.74666845       1.08535384       1.97672819       0.00000000
Si      -1.18708489      -1.99818029      -0.52199468       0.00000000
Si      -0.17604603       1.71030341      -1.78355760       0.00000000
Si      -2.84693817      -0.69851521      -1.75050214       0.00000000
Si      -0.02687850       3.26476038       1.31679222       0.00000000
Si       3.15618753       1.28938609       1.35492186       0.00000000
Si      -1.70680106       0.76261636      -3.22896401       0.00000000
Si       3.03792213      -1.09186984      -1.94933351       0.00000000
Si      -3.09826029       1.48237372       1.68271938       0.00000000
