10
Lattice="16.2900001489832 0.0 0.0 0.0 16.2900001489832 0.0 0.0 0.0 29.33048724650998" Properties=species:S:1:pos:R:3:initial_magmoms:R:1 pbc="T T T"
Si      -0.08087985      -1.48416562       0.39824936       0.00000000
Si      -1.20767545      -1.04487319       2.47285338       0.00000000
Si      -1.13389804      -2.18084006      -1.69893914       0.00000000
Si      -0.00518022       2.67620267       1.35940942       0.00000000
Si       2.99050194       0.29822103       0.03232220       0.00000000
Si       2.27071199      -1.88118551       0.69225816       0.00000000
Si       2.11942676       0.70913629      -2.11912770       0.00000000
Si      -1.45494136       1.33328764       2.67013024       0.00000000
Si       2.25458489       2.07042644       1.33353993       0.00000000
Si      -0.44551521       3.28232100      -0.92323575       0.00000000
