10
Lattice="16.2900001489832 0.0 0.0 0.0 16.2900001489832 0.0 0.0 0.0 29.33048724650998" Properties=species:S:1:pos:R:3:initial_magmoms:R:1 pbc="T T T"
Si      -1.75883132       0.99261487      -1.31626428       0.00000000
Si      -0.30030615      -2.28001358       1.07619424       0.00000000
Si      -0.13304043       1.68047642       1.90070357       0.00000000
Si       1.73053559       0.02749752      -1.93023937       0.00000000
H        2.25215768       0.51175035       2.19741077       0.00000000
H       -3.16072592      -0.41899509       0.44775922       0.00000000
Si      -0.89037883       2.50106888      -2.87849402       0.00000000
Si      -3.27585713       2.50178564      -0.22390894       0.00000000
Si      -2.66999456      -0.16718427      -3.14768923       0.00000000
Si       2.41015439       2.22980780      -2.54031350       0.00000000
