10
Lattice="16.2900001489832 0.0 0.0 0.0 16.2900001489832 0.0 0.0 0.0 29.33048724650998" Properties=species:S:1:pos:R:3:initial_magmoms:R:1 pbc="T T T"
Si      -1.31277853       1.15857739      -1.51820468       0.00000000
Si      -0.42986052      -2.26541774       0.32682962       0.00000000
Si       1.96071329      -0.11029959      -1.25205984       0.00000000
Si      -0.26370252       1.01590957       2.17916721       0.00000000
H        0.41423841       3.20745216      -0.22038928       0.00000000
Si      -2.04331825      -1.65234359       1.90997200       0.00000000
Si       3.03036357       1.29342601       0.19997526       0.00000000
Si       1.73768690      -2.75828799       1.13420994       0.00000000
Si      -3.15633414       1.67773970      -0.19757016       0.00000000
Si      -2.04021826       2.47270799       1.66476913       0.00000000
