10
Lattice="16.2900001489832 0.0 0.0 0.0 16.2900001489832 0.0 0.0 0.0 29.33048724650998" Properties=species:S:1:pos:R:3:initial_magmoms:R:1 pbc="T T T"
Si       2.33077322      -0.14304249      -0.64216169       0.00000000
Si      -0.25317918       1.50599422       1.92158587       0.00000000
Si      -0.88479136      -2.24270948       0.53654260       0.00000000
Si      -1.92477755       0.69916681      -1.42355520       0.00000000
Si      -2.52553646      -1.39330000       1.94056370       0.00000000
Si      -3.52825113       0.07097553       0.36780431       0.00000000
H        0.62768629       3.49093074      -0.30233866       0.00000000
Si      -1.21109635      -0.11823282       3.37261007       0.00000000
Si       2.74929591       1.87168844      -1.75117674       0.00000000
Si       2.59297706      -1.95468599      -2.17573554       0.00000000
