10
Lattice="16.28999089631971 0.0 0.0 0.0 16.28999089631971 0.0 0.0 0.0 34.33025523377368" Properties=species:S:1:pos:R:3:initial_magmoms:R:1 pbc="T T T"
Si      -1.76344460       1.30030038      -0.78976796       0.00000000
Si       1.65117069       0.72036009      -1.51976692       0.00000000
Si      -1.10871532      -2.01895002      -0.66295193       0.00000000
Si       0.41963040      -0.02256165       2.36432600       0.00000000
Si      -3.31119404       0.57811581       0.87751614       0.00000000
Si      -3.02936075      -1.77293844       0.72938101       0.00000000
Si      -1.78703648       0.66357315      -3.16387809       0.00000000
Si       0.50497371      -3.69875853      -0.32740783       0.00000000
Si      -1.63697249      -1.70434125      -2.96617004       0.00000000
Si       2.08109637      -1.61292177       2.73866331       0.00000000
