10
Lattice="16.28999089631971 0.0 0.0 0.0 16.28999089631971 0.0 0.0 0.0 34.33025523377368" Properties=species:S:1:pos:R:3:initial_magmoms:R:1 pbc="T T T"
Si       1.17017586       1.30118004       1.51644516       0.00000000
Si      -1.00765053       1.15290846      -1.83636071       0.00000000
Si       1.57854987      -1.14157062      -1.43469650       0.00000000
Si      -1.57565025      -1.42154685       1.38417405       0.00000000
Si      -2.82251454      -0.38664315      -1.90107328       0.00000000
Si      -2.80996798      -2.33295606      -0.47969692       0.00000000
Si       2.88419337       2.32834599      -0.08713024       0.00000000
Si       2.56960089      -2.67450849       0.17408882       0.00000000
Si      -1.50120006       3.35142219      -0.84552033       0.00000000
Si       2.34932751      -0.15060105       2.99112613       0.00000000
