10
Lattice="16.28999089631971 0.0 0.0 0.0 16.28999089631971 0.0 0.0 0.0 34.33025523377368" Properties=species:S:1:pos:R:3:initial_magmoms:R:1 pbc="T T T"
Si      -1.08217402       0.56805185       1.93152423       0.00000000
Si       1.55094158       1.80918695      -0.07343246       0.00000000
Si       0.59092301      -2.31337941       0.50081004       0.00000000
Si      -1.92852816      -0.40706755      -1.66879464       0.00000000
Si      -0.20578994      -2.13024723      -1.84617917       0.00000000
Si       2.77101371       0.39727726      -1.65901051       0.00000000
Si      -0.09140971       3.02699477      -1.44846294       0.00000000
Si      -2.50094247      -1.31853282       2.02263678       0.00000000
Si       1.36217306      -0.95071226      -3.12477591       0.00000000
Si      -1.50244641       1.61242004      -2.91642547       0.00000000
