10
Lattice="16.28999089631971 0.0 0.0 0.0 16.28999089631971 0.0 0.0 0.0 34.33025523377368" Properties=species:S:1:pos:R:3:initial_magmoms:R:1 pbc="T T T"
Si      -1.55094158      -1.80918695       0.07343246       0.00000000
Si       1.22007213      -1.41190969      -1.58557805       0.00000000
Si      -1.64235128       1.21780782      -1.37503048       0.00000000
Si       0.64923795       0.38633364       2.71940403       0.00000000
Si       2.77382862       1.56289518      -1.03268898       0.00000000
Si      -2.63311560      -1.24113510       2.00495669       0.00000000
Si      -2.82408327       2.23534638       0.45957938       0.00000000
Si       2.60162703      -2.75052089      -0.17034682       0.00000000
Si       2.52595998      -0.02150280      -2.97162855       0.00000000
Si      -0.34976259       2.69149896      -2.81827522       0.00000000
