10
Lattice="16.28999089631971 0.0 0.0 0.0 16.28999089631971 0.0 0.0 0.0 34.33025523377368" Properties=species:S:1:pos:R:3:initial_magmoms:R:1 pbc="T T T"
Si      -1.59127236       0.38790237       1.89764025       0.00000000
Si      -1.56056571      -1.34017667      -1.43833551       0.00000000
Si       1.92254580      -1.39949752       0.87140536       0.00000000
Si       0.07778475       2.79343038      -0.30447520       0.00000000
Si       2.02092111       0.26706315      -2.64260720       0.00000000
Si       2.48860701       2.26683984       1.21889639       0.00000000
Si       2.90572875       0.16420809       2.35368361       0.00000000
Si      -2.25054495      -1.84508915       2.37774914       0.00000000
Si       3.33065340      -1.17711866      -1.35202920       0.00000000
Si      -2.79026523      -2.76076634      -0.00254044       0.00000000
