10
Lattice="16.28999089631971 0.0 0.0 0.0 16.28999089631971 0.0 0.0 0.0 34.33025523377368" Properties=species:S:1:pos:R:3:initial_magmoms:R:1 pbc="T T T"
Si       1.57868019      -1.47636270       0.79275470       0.00000000
Si      -1.70092035      -1.45402911      -0.62954857       0.00000000
Si      -1.20138750       0.92853000       1.78596387       0.00000000
Si       0.43189677       1.08561447      -2.04041986       0.00000000
Si       0.11805363      -2.71988917       2.27935857       0.00000000
Si      -2.07664920      -2.46881792       1.49017422       0.00000000
Si      -0.84100383      -2.16802307      -2.72359232       0.00000000
Si      -2.30772285       2.74569579       0.73813523       0.00000000
Si      -3.48658128      -0.05028723      -1.23729742       0.00000000
Si       0.32747787       1.26721539       3.53001047       0.00000000
