10
Lattice="16.28999089631971 0.0 0.0 0.0 16.28999089631971 0.0 0.0 0.0 34.33025523377368" Properties=species:S:1:pos:R:3:initial_magmoms:R:1 pbc="T T T"
Si      -1.35589815      -1.35635427      -1.35944454       0.00000000
Si       1.35725022      -1.35742941       1.35796833       0.00000000
Si       1.35773892       1.35935163      -1.35577120       0.00000000
Si      -1.35777150       1.35773892       1.35838030       0.00000000
Si       0.00703728       2.70629028      -2.71744720       0.00000000
Si      -2.71332919       0.00083079       2.71446047       0.00000000
Si       0.00021177      -2.71409156       2.71411717       0.00000000
Si       2.71379997      -2.71511457       0.00085826       0.00000000
Si       2.70860346       0.00628794      -2.72088023       0.00000000
Si      -2.71576780       2.71440270       0.00061794       0.00000000
