10
Lattice="16.28999089631971 0.0 0.0 0.0 16.28999089631971 0.0 0.0 0.0 34.33025523377368" Properties=species:S:1:pos:R:3:initial_magmoms:R:1 pbc="T T T"
Si      -1.35070164       1.34693865      -1.36167600       0.00000000
Si       1.35780408       1.35539316       1.35573687       0.00000000
Si       1.35086454      -1.35306369      -1.36510903       0.00000000
Si      -1.35773892      -1.35935163       1.35577120       0.00000000
Si      -0.00037467       2.71366965       2.71343056       0.00000000
Si       2.71466334      -0.00161271       2.71370520       0.00000000
Si      -2.71363707      -2.71570590      -0.00367334       0.00000000
Si      -2.71551042      -0.00161271       2.71415150       0.00000000
Si      -2.71552671       2.71420722      -0.00346736       0.00000000
Si      -0.00048870      -2.71678104       2.71373953       0.00000000
