10
Lattice="16.28999089631971 0.0 0.0 0.0 16.28999089631971 0.0 0.0 0.0 34.33025523377368" Properties=species:S:1:pos:R:3:initial_magmoms:R:1 pbc="T T T"
Si       1.35233064      -1.35889551       1.35807133       0.00000000
Si       1.35531171       1.35610992      -1.35789967       0.00000000
Si      -1.35984033      -1.35905841      -1.35786534       0.00000000
Si      -1.36489023       1.35508365       1.35882659       0.00000000
Si       2.71334385       2.71254564       0.00075527       0.00000000
Si       2.71204065      -0.00040725      -2.71562770       0.00000000
Si      -0.00154755       2.71311579      -2.71586801       0.00000000
Si       2.71342530      -2.71620926      -0.00027464       0.00000000
Si      -2.71531494       2.71497285      -0.00164785       0.00000000
Si      -0.00329058      -2.71674357      -2.71497542       0.00000000
