10
Lattice="16.28999089631971 0.0 0.0 0.0 16.28999089631971 0.0 0.0 0.0 34.33025523377368" Properties=species:S:1:pos:R:3:initial_magmoms:R:1 pbc="T T T"
Si       1.35558864       1.35641943      -1.35652646       0.00000000
Si       1.35042471      -1.35988920       1.36047444       0.00000000
Si      -1.35738054       1.35327546       1.36047444       0.00000000
Si      -1.35954711      -1.35886293      -1.35580553       0.00000000
Si      -0.00123804       2.71386513      -2.71356788       0.00000000
Si       2.71376739      -0.00185706      -2.71422016       0.00000000
Si       2.71531494      -2.71497285       0.00164785       0.00000000
Si       2.71502172       2.71529865       0.00068661       0.00000000
Si      -0.00177561      -2.71660185      -2.71418583       0.00000000
Si      -2.71510480      -2.71577106       0.00027464       0.00000000
