10
Lattice="16.28999089631971 0.0 0.0 0.0 16.28999089631971 0.0 0.0 0.0 34.33025523377368" Properties=species:S:1:pos:R:3:initial_magmoms:R:1 pbc="T T T"
Si      -1.35042471       1.35988920      -1.36047444       0.00000000
Si       1.36489023      -1.35508365      -1.35882659       0.00000000
Si      -1.34944731      -1.33988508       1.39020446       0.00000000
Si       1.35726651       1.37368683       1.37286767       0.00000000
Si       0.17993934      -2.53558737       2.80574467       0.00000000
Si      -2.70780525       2.71316466       0.00000000       0.00000000
Si      -2.70997182       0.00102627      -2.71627997       0.00000000
Si      -2.71360449      -2.71306692      -0.00333004       0.00000000
Si       0.00504990      -2.71414206      -2.71669194       0.00000000
Si       2.71722087      -2.71397916      -0.00075527       0.00000000
