10
Lattice="16.28999089631971 0.0 0.0 0.0 16.28999089631971 0.0 0.0 0.0 34.33025523377368" Properties=species:S:1:pos:R:3:initial_magmoms:R:1 pbc="T T T"
Si      -0.98922654      -0.76654224       1.97237726       0.00000000
Si       0.75179979       2.21535855       0.06742466       0.00000000
Si       2.03284539      -1.23009048      -0.28061566       0.00000000
Si      -1.84694391      -0.15227892      -1.62121288       0.00000000
Si       2.34655821       2.15495523      -1.85318254       0.00000000
Si       0.78121953      -0.95925294       3.52242348       0.00000000
Si      -1.20039381       3.55615587      -0.17831145       0.00000000
Si      -2.73307104       2.10502638      -1.48955628       0.00000000
Si       3.74855706       0.47581461      -0.63332490       0.00000000
Si      -2.14386174      -2.81693196       1.60119833       0.00000000
