10
Lattice="16.28999089631971 0.0 0.0 0.0 16.28999089631971 0.0 0.0 0.0 34.33025523377368" Properties=species:S:1:pos:R:3:initial_magmoms:R:1 pbc="T T T"
Si      -1.46614887       0.17980902      -1.99620247       0.00000000
Si      -0.07778475      -2.79343038       0.30447520       0.00000000
Si       0.18085158       2.44905489       1.43885046       0.00000000
Si       2.41082226      -0.52659054       1.52337160       0.00000000
Si       0.70907112       0.55578222       2.86050146       0.00000000
Si      -1.17691992       2.46988980      -2.21965822       0.00000000
Si      -1.66905711      -2.40552801       2.20211545       0.00000000
Si       1.94313636      -2.52636723      -2.33813200       0.00000000
Si      -3.59073954      -0.99675252       1.75589055       0.00000000
Si      -0.58787352      -1.23439104       3.89370539       0.00000000
