10
Lattice="16.28999089631971 0.0 0.0 0.0 16.28999089631971 0.0 0.0 0.0 34.33025523377368" Properties=species:S:1:pos:R:3:initial_magmoms:R:1 pbc="T T T"
Si       1.34306163       1.34822556       1.38992295       0.00000000
Si      -1.36686132      -1.37033109       1.38806912       0.00000000
Si      -1.22367222       1.54772919      -1.34002733       0.00000000
Si       1.69790670      -1.11149928      -1.48779513       0.00000000
Si      -2.52354906       0.28458630      -2.75252042       0.00000000
Si       2.70417258       2.70524772       0.03756075       0.00000000
Si       2.71111212      -2.69930187       0.02398656       0.00000000
Si       2.69957880      -0.00148239       2.74895553       0.00000000
Si      -2.73041577      -2.72536587       0.02951717       0.00000000
Si      -0.01381392       2.71246419       2.74874955       0.00000000
