10
Lattice="16.28999089631971 0.0 0.0 0.0 16.28999089631971 0.0 0.0 0.0 34.33025523377368" Properties=species:S:1:pos:R:3:initial_magmoms:R:1 pbc="T T T"
Si       1.35651717      -1.34970795       1.35903257       0.00000000
Si       1.36111095       1.35702216      -1.35236220       0.00000000
Si      -1.35687555       1.36423863       1.35882659       0.00000000
Si      -1.34306163      -1.34822556      -1.38992295       0.00000000
Si      -2.56673385       0.19950363      -2.72995029       0.00000000
Si       0.35484507      -2.45972484      -2.87771809       0.00000000
Si       2.71052568      -2.71438641       0.00030897       0.00000000
Si      -0.00141723      -2.71010214       2.71555904       0.00000000
Si      -2.70992295      -2.71855665      -0.00185383       0.00000000
Si       2.71324611       0.00513135       2.71624564       0.00000000
