10
Lattice="16.28999089631971 0.0 0.0 0.0 16.28999089631971 0.0 0.0 0.0 34.33025523377368" Properties=species:S:1:pos:R:3:initial_magmoms:R:1 pbc="T T T"
Si      -1.35558864      -1.35641943       1.35652646       0.00000000
Si      -1.35682668       1.35744570      -1.35704142       0.00000000
Si       1.35817875      -1.35827649      -1.35769369       0.00000000
Si       1.35943308       1.35887922       1.35721307       0.00000000
Si       0.00037467      -2.71366965      -2.71343056       0.00000000
Si      -2.71458189       2.71445157       0.00024031       0.00000000
Si       2.71301805       0.00078192       2.71617698       0.00000000
Si      -0.00140094       2.71363707       2.71583368       0.00000000
Si       2.71464705       2.71489140      -0.00017165       0.00000000
Si      -2.71296918      -0.00314397       2.71700091       0.00000000
