10
Lattice="16.28999089631971 0.0 0.0 0.0 16.28999089631971 0.0 0.0 0.0 34.33025523377368" Properties=species:S:1:pos:R:3:initial_magmoms:R:1 pbc="T T T"
Si       1.35928647       1.34685720      -1.37321098       0.00000000
Si      -1.35228177      -1.36992384      -1.37204375       0.00000000
Si       1.39206195      -1.16985006       1.54575494       0.00000000
Si      -1.22559444       1.36295172       1.54716248       0.00000000
Si      -0.45217782      -2.04900507       2.96617004       0.00000000
Si      -2.22016410      -0.35780985       2.90121716       0.00000000
Si       0.70229448       2.30537709       2.78470021       0.00000000
Si      -2.69626378       2.69461035       0.01527697       0.00000000
Si       2.71278999      -2.70940167       0.00082393       0.00000000
Si       2.46488877       0.49554180       2.90506215       0.00000000
