10
Lattice="16.28999089631971 0.0 0.0 0.0 16.28999089631971 0.0 0.0 0.0 34.33025523377368" Properties=species:S:1:pos:R:3:initial_magmoms:R:1 pbc="T T T"
Si       0.74631006       1.79877438      -1.37578575       0.00000000
Si      -1.92788892      -0.94242537      -1.23753773       0.00000000
Si       0.43140807       1.00502784       2.26559213       0.00000000
Si       1.76259429      -1.80983529       0.12036194       0.00000000
Si       2.02457007       0.40563729      -2.79726509       0.00000000
Si      -0.70229448      -2.30537709      -2.78470021       0.00000000
Si       3.34173060      -0.98355762      -1.38766402       0.00000000
Si       0.68976747      -3.47522715      -1.23894527       0.00000000
Si       2.83121829       1.53953532       1.93832162       0.00000000
Si       2.12894010       3.11837841       0.09543816       0.00000000
