10
Lattice="16.28999089631971 0.0 0.0 0.0 16.28999089631971 0.0 0.0 0.0 34.33025523377368" Properties=species:S:1:pos:R:3:initial_magmoms:R:1 pbc="T T T"
Si       1.35614250       1.35777150      -1.35686977       0.00000000
Si       1.35444834      -1.35822762       1.35892958       0.00000000
Si      -1.35873261      -1.35741312      -1.35666378       0.00000000
Si      -1.35909099       1.35674523       1.36105806       0.00000000
Si       2.71336014       0.00042354      -2.71394551       0.00000000
Si       2.71528236      -2.71298547       0.00030897       0.00000000
Si      -0.00097740      -2.71441899      -2.71394551       0.00000000
Si      -2.71545666      -2.71311579       0.00027464       0.00000000
Si      -0.00048870       2.71546155      -2.71363654       0.00000000
Si       2.71474479       2.71503801      -0.00051495       0.00000000
