10
Lattice="16.28999089631971 0.0 0.0 0.0 16.28999089631971 0.0 0.0 0.0 34.33025523377368" Properties=species:S:1:pos:R:3:initial_magmoms:R:1 pbc="T T T"
Si      -1.34732731       1.34825814       1.35985650       0.00000000
Si       1.36808144       1.34092764      -1.36267158       0.00000000
Si       1.36870046      -1.36668213       1.35388303       0.00000000
Si      -1.36105461      -1.36901160      -1.39661392       0.00000000
Si       2.12968781      -0.61910145      -2.50446218       0.00000000
Si       0.37686752      -2.46191096      -2.70185096       0.00000000
Si      -2.70297594       2.69882946      -0.00051495       0.00000000
Si       0.00883081       2.70407484       2.71394551       0.00000000
Si      -2.70517509      -0.00884547       2.71442614       0.00000000
Si       2.73163589       2.69596242      -0.00411963       0.00000000
