10
Lattice="16.28999089631971 0.0 0.0 0.0 16.28999089631971 0.0 0.0 0.0 34.33025523377368" Properties=species:S:1:pos:R:3:initial_magmoms:R:1 pbc="T T T"
Si      -2.39981022      -0.53450748       0.32727051       0.00000000
Si      -0.70227819       1.57884309      -1.84288346       0.00000000
Si       1.66561992      -1.07854461      -1.84075498       0.00000000
Si       0.79649955       0.90679914       2.60570216       0.00000000
Si       0.21053196      -3.22489872       0.51210470       0.00000000
Si       2.76664473      -1.90988847       0.05231934       0.00000000
Si      -1.92238290       3.09738453      -0.48803918       0.00000000
Si      -3.15208242       1.67679486       0.94775589       0.00000000
Si      -2.83121829      -1.53953532      -1.93832162       0.00000000
Si       1.56072861       3.03806368       1.82170168       0.00000000
