10
Lattice="16.28999089631971 0.0 0.0 0.0 16.28999089631971 0.0 0.0 0.0 34.33025523377368" Properties=species:S:1:pos:R:3:initial_magmoms:R:1 pbc="T T T"
Si       1.31483106       1.12686075       1.60298350       0.00000000
Si      -0.61727697      -2.05846956       1.01926585       0.00000000
Si       1.64252070      -0.39765519      -1.67741154       0.00000000
Si      -1.76634099       1.28801772      -0.95506823       0.00000000
Si       3.20776164      -0.37792800       1.66532728       0.00000000
Si       3.41049069      -1.38872250      -0.45700461       0.00000000
Si       0.01545921       1.16732511       3.60783720       0.00000000
Si       2.40674976       1.73360935      -2.46141202       0.00000000
Si       1.83255984       3.30379838       0.81136171       0.00000000
Si       0.13595634      -2.26224117       3.20195036       0.00000000
