10
Lattice="16.28999089631971 0.0 0.0 0.0 16.28999089631971 0.0 0.0 0.0 34.33025523377368" Properties=species:S:1:pos:R:3:initial_magmoms:R:1 pbc="T T T"
Si      -2.06747793       0.21779730       1.05726946       0.00000000
Si       0.65927259       2.23299152      -0.48010889       0.00000000
Si       1.76634099      -1.28801772       0.95506823       0.00000000
Si      -0.53972028      -0.91567719      -2.38028958       0.00000000
Si      -2.93633766       2.22341300       0.08647796       0.00000000
Si       2.25054495       1.84508915      -2.37774914       0.00000000
Si       3.40886169      -1.68567291      -0.72234330       0.00000000
Si      -3.45507968      -1.63949076       0.75856174       0.00000000
Si      -1.90161315       0.26697681       3.40443032       0.00000000
Si       0.68997924       0.50491248      -3.81608464       0.00000000
