10
Lattice="16.28999089631971 0.0 0.0 0.0 16.28999089631971 0.0 0.0 0.0 34.33025523377368" Properties=species:S:1:pos:R:3:initial_magmoms:R:1 pbc="T T T"
Si      -1.33975476      -1.35022108       1.37870039       0.00000000
Si       1.37542986       1.36376622       1.36953420       0.00000000
Si       1.16423001      -1.49686366      -1.42708548       0.00000000
Si      -1.32698340       1.42925202      -1.42826644       0.00000000
Si       1.76634099       0.44429346      -2.57100077       0.00000000
Si       0.49511826       2.44421676      -2.60898688       0.00000000
Si      -2.69858511      -2.68920926       0.00615885       0.00000000
Si       2.72714148      -2.69310173       0.00777237       0.00000000
Si      -2.68467345       2.74028751       0.00819807       0.00000000
Si      -2.69544114       0.00247608       2.73031762       0.00000000
