10
Lattice="16.28999089631971 0.0 0.0 0.0 16.28999089631971 0.0 0.0 0.0 34.33025523377368" Properties=species:S:1:pos:R:3:initial_magmoms:R:1 pbc="T T T"
Si      -1.35233064       1.35889551      -1.35807133       0.00000000
Si      -1.33612209      -1.35645527       1.38361305       0.00000000
Si       1.36109466      -1.35731375      -1.35834597       0.00000000
Si       1.36870209       1.36640520       1.36964063       0.00000000
Si      -2.53728153       0.17839179       2.80649993       0.00000000
Si      -2.71217097      -0.00016290      -2.71593667       0.00000000
Si      -2.71321353      -2.71595938       0.00054928       0.00000000
Si       2.71650411       2.71432125      -0.00123589       0.00000000
Si       0.00298107       2.71500543      -2.71597100       0.00000000
Si      -2.71722087       2.71397916       0.00075527       0.00000000
