10
Lattice="16.28999089631971 0.0 0.0 0.0 16.28999089631971 0.0 0.0 0.0 34.33025523377368" Properties=species:S:1:pos:R:3:initial_magmoms:R:1 pbc="T T T"
Si      -0.17787051       0.96132177      -2.08477457       0.00000000
Si       0.37370889      -2.21999210      -0.81541268       0.00000000
Si      -2.05988679       0.77745654       1.17361476       0.00000000
Si       1.99591596       1.04418900       1.18552737       0.00000000
Si      -2.17710963      -0.11922651      -2.65479445       0.00000000
Si       0.34981146      -3.33689966       1.36243127       0.00000000
Si       1.15755111       3.27129264       1.39301955       0.00000000
Si       2.63813292      -2.24827154      -1.49436252       0.00000000
Si      -0.49653549       3.23719767      -2.19610765       0.00000000
Si       1.69940538       0.54224523      -3.52551320       0.00000000
