10
Lattice="16.28999089631971 0.0 0.0 0.0 16.28999089631971 0.0 0.0 0.0 34.33025523377368" Properties=species:S:1:pos:R:3:initial_magmoms:R:1 pbc="T T T"
Si       1.27122273      -1.99992330       0.03798611       0.00000000
Si      -1.82210166      -1.01496474       1.18072044       0.00000000
Si       1.00872567       1.87563060       1.16560825       0.00000000
Si      -0.59712624      -0.04968450      -2.37053501       0.00000000
Si       2.23559073       0.30116952       2.60640181       0.00000000
Si       0.24123861      -2.27678814      -2.57802719       0.00000000
Si      -0.49511826      -2.44421676       2.60898688       0.00000000
Si       3.29377284      -1.21326291       1.10618255       0.00000000
Si      -2.79151956       0.75958641      -2.41746450       0.00000000
Si      -0.48185820       3.01827636       2.60958079       0.00000000
