10
Lattice="16.28999089631971 0.0 0.0 0.0 16.28999089631971 0.0 0.0 0.0 34.33025523377368" Properties=species:S:1:pos:R:3:initial_magmoms:R:1 pbc="T T T"
Si      -1.35672894       1.35651717       1.35772802       0.00000000
Si       1.35861858       1.35679410      -1.35676678       0.00000000
Si       1.35891180      -1.35922131       1.35697276       0.00000000
Si      -1.35488817      -1.36171368      -1.35961619       0.00000000
Si      -0.00164529       2.70923877      -2.71549038       0.00000000
Si       0.00079821      -2.71441085      -2.71123342       0.00000000
Si      -2.71358820       2.71352304      -0.00024031       0.00000000
Si      -2.71204065       0.00040725       2.71562770       0.00000000
Si       0.00130320       2.71295289       2.71638296       0.00000000
Si       2.71622718       2.71339272       0.00010299       0.00000000
