10
Lattice="16.28999089631971 0.0 0.0 0.0 16.28999089631971 0.0 0.0 0.0 34.33025523377368" Properties=species:S:1:pos:R:3:initial_magmoms:R:1 pbc="T T T"
Si       1.20888090       2.01885228       0.07346679       0.00000000
Si      -1.46359134       0.82922616       1.70418915       0.00000000
Si      -1.46157138      -0.31307751      -1.91501137       0.00000000
Si       1.66604346      -1.75519863      -0.25778603       0.00000000
Si       2.08360503       1.51376454      -2.12339613       0.00000000
Si       0.20033442       0.59737059      -3.37391071       0.00000000
Si       1.21119408      -2.84706846       1.72585156       0.00000000
Si      -0.30947742       3.82337703       0.02454615       0.00000000
Si      -2.86559019       2.50836678       0.48433151       0.00000000
Si      -3.17930301      -0.87667893       2.05689839       0.00000000
