10
Lattice="16.28999089631971 0.0 0.0 0.0 16.28999089631971 0.0 0.0 0.0 34.33025523377368" Properties=species:S:1:pos:R:3:initial_magmoms:R:1 pbc="T T T"
Si      -1.53466461       1.13772618      -1.36325520       0.00000000
Si       0.90060894       1.64569725       1.47170453       0.00000000
Si       1.19399184      -1.58353461      -1.36723751       0.00000000
Si      -2.17489419       1.10293074       1.78510561       0.00000000
Si      -2.46412314      -1.18715004       2.00856137       0.00000000
Si       2.56251474       2.55614535       0.01280519       0.00000000
Si      -0.17374914       2.48112990      -2.73694680       0.00000000
Si       2.54179386      -0.23561856      -2.73811403       0.00000000
Si       2.49277725      -2.89530315       0.12554581       0.00000000
Si      -2.71199178      -2.77154802       0.06962180       0.00000000
