10
Lattice="16.28999089631971 0.0 0.0 0.0 16.28999089631971 0.0 0.0 0.0 34.33025523377368" Properties=species:S:1:pos:R:3:initial_magmoms:R:1 pbc="T T T"
Si       1.85291745       1.26733757      -0.98057563       0.00000000
Si       0.49354953      -2.19851373      -0.99084038       0.00000000
Si      -2.04805603       0.11981458      -1.41993448       0.00000000
Si       0.14872281       0.81786063       2.49940674       0.00000000
Si       1.84421859       3.13984048       0.40111493       0.00000000
Si       1.50120006      -3.35142219       0.84552033       0.00000000
Si      -2.37108673       2.42107681      -1.75959822       0.00000000
Si      -1.42509774      -0.76624234      -3.65476668       0.00000000
Si       1.42898649       1.80710671      -3.29615264       0.00000000
Si       1.16085309      -0.81847380       3.83280833       0.00000000
