10
Lattice="16.28999089631971 0.0 0.0 0.0 16.28999089631971 0.0 0.0 0.0 34.33025523377368" Properties=species:S:1:pos:R:3:initial_magmoms:R:1 pbc="T T T"
Si      -1.08800910      -1.09964016      -1.74792592       0.00000000
Si      -0.46801170      -0.50876928       2.24252219       0.00000000
Si      -0.84261654       2.19993192      -0.04727279       0.00000000
Si       2.02805613      -1.22821713      -0.35775579       0.00000000
Si      -0.14934672      -2.78464518       2.35385527       0.00000000
Si       0.32193927       3.25646874       1.67329191       0.00000000
Si      -3.29536926      -1.30321629      -1.04933917       0.00000000
Si       1.72792917      -3.20372172       0.91311664       0.00000000
Si       1.42206813       0.11075571       3.47140869       0.00000000
Si       0.20184939      -2.96077266      -2.39003937       0.00000000
