10
Lattice="16.28999089631971 0.0 0.0 0.0 16.28999089631971 0.0 0.0 0.0 34.33025523377368" Properties=species:S:1:pos:R:3:initial_magmoms:R:1 pbc="T T T"
Si       0.31866498      -2.27587590       0.11133308       0.00000000
Si       1.89007983       0.61952499       1.22888650       0.00000000
Si       0.46801170       0.50876928      -2.24252219       0.00000000
Si      -1.53960048       1.04958099       1.45718283       0.00000000
Si      -0.37460484       2.70870120      -2.28979497       0.00000000
Si       1.52321274       2.89828422       1.48543664       0.00000000
Si       2.49606783      -0.71944785      -2.60027798       0.00000000
Si      -0.54030672       0.84336588       3.54219771       0.00000000
Si       2.19594087      -2.69495244      -1.32940555       0.00000000
Si      -2.93177646      -0.61284609       2.27856897       0.00000000
