10
Lattice="16.28999089631971 0.0 0.0 0.0 16.28999089631971 0.0 0.0 0.0 34.33025523377368" Properties=species:S:1:pos:R:3:initial_magmoms:R:1 pbc="T T T"
Si      -1.35741312       1.35782037      -1.35680111       0.00000000
Si       1.35773892      -1.35754344      -1.35714441       0.00000000
Si       1.35633798       1.35770634       1.35844896       0.00000000
Si      -1.35718506      -1.35798327       1.35913556       0.00000000
Si       0.00013032      -2.71414206      -2.71401417       0.00000000
Si      -2.71414206       0.00298107      -2.71401417       0.00000000
Si      -2.71521720      -2.71441899       0.00048062       0.00000000
Si       2.71513575      -2.71510317       0.00030897       0.00000000
Si      -0.00169416      -2.71510317       2.71521573       0.00000000
Si       2.71500543       2.71547784       0.00030897       0.00000000
