10
Lattice="16.28999089631971 0.0 0.0 0.0 16.28999089631971 0.0 0.0 0.0 34.33025523377368" Properties=species:S:1:pos:R:3:initial_magmoms:R:1 pbc="T T T"
Si      -1.16455581      -1.05653682      -1.72056469       0.00000000
Si       0.73326177      -0.86695380       2.05466692       0.00000000
Si      -1.82936700       1.19998656       0.94421987       0.00000000
Si       2.32806906       0.16552269      -0.71846398       0.00000000
Si       2.92840443      -0.20864232       1.59759365       0.00000000
Si      -0.32193927      -3.25646874      -1.67329191       0.00000000
Si      -2.56712481       2.58838326      -0.77373572       0.00000000
Si      -3.31677432      -0.55874700       1.68822557       0.00000000
Si       1.10012886      -3.14571303       1.79811678       0.00000000
Si      -0.48479040      -0.04064355      -3.75717389       0.00000000
