10
Lattice="16.28999089631971 0.0 0.0 0.0 16.28999089631971 0.0 0.0 0.0 34.33025523377368" Properties=species:S:1:pos:R:3:initial_magmoms:R:1 pbc="T T T"
Si      -1.34609157      -1.36055709      -1.36854206       0.00000000
Si       1.40592474      -1.24486551       1.42000314       0.00000000
Si       1.37210670       1.35426915      -1.36874804       0.00000000
Si      -1.49361381       1.27475766       1.40403956       0.00000000
Si       2.52565047       0.35820081       2.79293948       0.00000000
Si      -2.70373275      -2.71195920      -0.00700338       0.00000000
Si      -2.70371646       2.71379997      -0.00521820       0.00000000
Si      -2.70122409      -0.00294849      -2.72863887       0.00000000
Si       2.73852819      -2.69197137       0.00099558       0.00000000
Si       2.72862387       2.70353727       0.00614512       0.00000000
