10
Lattice="16.28999089631971 0.0 0.0 0.0 16.28999089631971 0.0 0.0 0.0 34.33025523377368" Properties=species:S:1:pos:R:3:initial_magmoms:R:1 pbc="T T T"
Si       1.34944731       1.33988508      -1.39020446       0.00000000
Si      -1.36415718      -1.37318184      -1.39353450       0.00000000
Si       1.52938665      -1.19570229       1.41554021       0.00000000
Si      -1.34633592       1.51729947       1.56889354       0.00000000
Si       1.77725529       0.38869569       3.35447977       0.00000000
Si       0.22349880      -2.58610918       2.80159070       0.00000000
Si      -2.71964645       2.69708643      -0.01229024       0.00000000
Si       2.70671382       2.71357191      -0.01733679       0.00000000
Si      -2.71230292      -2.71219052      -0.01719947       0.00000000
Si      -0.00097740       2.69977428      -2.75067891       0.00000000
