10
Lattice="16.28999089631971 0.0 0.0 0.0 16.28999089631971 0.0 0.0 0.0 34.33025523377368" Properties=species:S:1:pos:R:3:initial_magmoms:R:1 pbc="T T T"
Si      -0.49717080      -1.02503196      -2.00729115       0.00000000
Si      -1.13494059       2.04674076       0.08987666       0.00000000
Si       2.25694692       0.74375253      -0.24041491       0.00000000
Si      -0.50420808      -1.19637018       2.01192573       0.00000000
Si      -2.87834526      -1.06114689       1.64023185       0.00000000
Si      -3.29546700       1.04148486       0.50544463       0.00000000
Si       2.32756407       2.09691396       1.68087890       0.00000000
Si       1.24680402      -2.76147170      -1.97000847       0.00000000
Si       0.17034453       3.17366667       1.72832334       0.00000000
Si      -0.68009121       3.13861059      -1.89376093       0.00000000
