10
Lattice="16.28999089631971 0.0 0.0 0.0 16.28999089631971 0.0 0.0 0.0 34.33025523377368" Properties=species:S:1:pos:R:3:initial_magmoms:R:1 pbc="T T T"
Si       1.35192502      -1.35718506       1.35686977       0.00000000
Si       1.35555769       1.35690813      -1.35608017       0.00000000
Si      -1.35639662       1.35487188       1.35992516       0.00000000
Si      -1.35933341      -1.35801585      -1.35587419       0.00000000
Si      -0.00243861       2.71357191      -2.71384252       0.00000000
Si       2.71332919      -0.00083079      -2.71446047       0.00000000
Si       2.71354096      -2.71492235      -0.00034330       0.00000000
Si       0.00377928      -2.69619374       2.73320480       0.00000000
Si      -2.71644451       0.00065160      -2.71336190       0.00000000
Si      -0.00222521      -2.71586228      -2.71428882       0.00000000
