10
Lattice="16.28999089631971 0.0 0.0 0.0 16.28999089631971 0.0 0.0 0.0 34.33025523377368" Properties=species:S:1:pos:R:3:initial_magmoms:R:1 pbc="T T T"
Si      -1.49058387       1.14264576       1.44397254       0.00000000
Si      -1.00872567      -1.87563060      -1.16560825       0.00000000
Si       1.22686506      -1.57446108       1.44079355       0.00000000
Si       1.37187864       1.40331834      -1.66401041       0.00000000
Si       2.67085953       2.44019313      -0.01935541       0.00000000
Si      -0.13178610       2.47210524       2.81651751       0.00000000
Si       2.58888825      -0.24772203       2.81926393       0.00000000
Si      -2.66198148       2.76439671       0.00658798       0.00000000
Si       2.28504717      -3.08889351      -0.05942571       0.00000000
Si      -2.84604219      -0.24641883       2.81782206       0.00000000
