10
Lattice="16.28999089631971 0.0 0.0 0.0 16.28999089631971 0.0 0.0 0.0 34.33025523377368" Properties=species:S:1:pos:R:3:initial_magmoms:R:1 pbc="T T T"
Si      -1.35283237      -1.35821133      -1.37818887       0.00000000
Si       1.36128851       1.35596331      -1.37791422       0.00000000
Si      -1.25808729       1.48807521       1.39628092       0.00000000
Si       1.37331053      -1.17978696       1.58118378       0.00000000
Si       0.49340618       2.36807730       2.89534668       0.00000000
Si       2.26139246       0.67688208       2.96029956       0.00000000
Si       2.71964645      -2.69708643       0.01229024       0.00000000
Si      -2.69890344      -2.72865645      -0.00714070       0.00000000
Si       2.71357028       2.72588715      -0.00587048       0.00000000
Si      -2.70235692       2.74400163      -0.00868556       0.00000000
