10
Lattice="16.28999089631971 0.0 0.0 0.0 16.28999089631971 0.0 0.0 0.0 34.33025523377368" Properties=species:S:1:pos:R:3:initial_magmoms:R:1 pbc="T T T"
Si       0.96648963       2.03230782       0.46472892       0.00000000
Si      -0.38141406      -0.10033011      -2.27558224       0.00000000
Si       1.78776953      -1.29622788       0.68451134       0.00000000
Si      -1.97977257      -0.30757149       1.24704722       0.00000000
Si       0.52353846       1.51272198       2.79125729       0.00000000
Si       1.99457108      -0.47403900       2.89943199       0.00000000
Si      -0.73961487       3.58482627       0.10872398       0.00000000
Si       0.96799645      -3.46761972       0.79505483       0.00000000
Si      -3.10875102      -2.07394506       0.22561856       0.00000000
Si      -0.66650535      -2.37985497      -2.81659303       0.00000000
