10
Lattice="16.28999089631971 0.0 0.0 0.0 16.28999089631971 0.0 0.0 0.0 34.33025523377368" Properties=species:S:1:pos:R:3:initial_magmoms:R:1 pbc="T T T"
Si      -1.85775137       1.49967369      -0.17827712       0.00000000
Si       1.18173199      -1.01753856      -1.83460986       0.00000000
Si      -1.26269396      -1.67658309       1.28144615       0.00000000
Si       1.26667293       1.74426804       1.39827208       0.00000000
Si      -1.19207681      -0.32342166       3.20273996       0.00000000
Si      -0.59719859       3.18774123       1.37842918       0.00000000
Si       2.82408327      -2.23534638      -0.45957938       0.00000000
Si       0.87890577       0.90319905       3.56427208       0.00000000
Si       0.19096767      -3.47648148       1.54537730       0.00000000
Si      -2.10951332       2.23032906      -2.36920090       0.00000000
