10
Lattice="16.28999089631971 0.0 0.0 0.0 16.28999089631971 0.0 0.0 0.0 34.33025523377368" Properties=species:S:1:pos:R:3:initial_magmoms:R:1 pbc="T T T"
Si       2.14130472       0.70240851       0.60349189       0.00000000
Si      -1.78357581       0.73695960       1.45423042       0.00000000
Si       0.60610203      -2.33245107      -0.24271504       0.00000000
Si      -0.47084616       0.93040335      -2.19421949       0.00000000
Si      -1.63092222      -1.07059509      -2.93403690       0.00000000
Si       1.99124073       3.07032291       0.40578384       0.00000000
Si       3.53132732      -0.40327524      -1.07429728       0.00000000
Si      -0.10591758      -2.82338280      -2.48740003       0.00000000
Si      -2.03097204       3.14598996       1.07687205       0.00000000
Si       2.66956189       0.38779974       2.90671000       0.00000000
