10
Lattice="16.28999089631971 0.0 0.0 0.0 16.28999089631971 0.0 0.0 0.0 34.33025523377368" Properties=species:S:1:pos:R:3:initial_magmoms:R:1 pbc="T T T"
Si      -1.35254241       1.35621322      -1.35951320       0.00000000
Si       1.36150421      -1.35928647      -1.35824298       0.00000000
Si      -1.35254241      -1.36614456       1.37479017       0.00000000
Si       1.36706236       1.37505912       1.37341696       0.00000000
Si      -2.71057455       2.71175462       0.00199116       0.00000000
Si      -2.70905958      -2.71541268      -0.00010299       0.00000000
Si      -2.71093293      -0.00226335      -2.71645162       0.00000000
Si       0.00394967       2.71323701      -2.71566203       0.00000000
Si       2.71520810       2.71406780      -0.00291807       0.00000000
Si       0.00364200      -2.71679733      -2.71652028       0.00000000
