10
Lattice="16.28999089631971 0.0 0.0 0.0 16.28999089631971 0.0 0.0 0.0 34.33025523377368" Properties=species:S:1:pos:R:3:initial_magmoms:R:1 pbc="T T T"
Si      -1.35729909      -1.35700587      -1.35621749       0.00000000
Si       1.35709665       1.35812988      -1.35625182       0.00000000
Si       1.35572025      -1.35980775       1.35827731       0.00000000
Si      -1.35560493       1.35951453       1.36016547       0.00000000
Si       0.01081656      -2.68672599       2.72990909       0.00000000
Si      -2.71489140       0.00065160      -2.71329324       0.00000000
Si       2.71470311       0.00037467      -2.71391118       0.00000000
Si       0.00073305      -2.71515204      -2.71363654       0.00000000
Si       0.00042354       2.71502172      -2.71377386       0.00000000
Si       2.71612522      -2.71287144       0.00085826       0.00000000
