10
Lattice="16.28999089631971 0.0 0.0 0.0 16.28999089631971 0.0 0.0 0.0 34.33025523377368" Properties=species:S:1:pos:R:3:initial_magmoms:R:1 pbc="T T T"
Si      -0.38776716      -0.84106899       2.16600000       0.00000000
Si      -1.86387152       1.44347319      -0.01984290       0.00000000
Si       2.09845011       0.93033819      -0.79608473       0.00000000
Si      -1.26667293      -1.74426804      -1.39827208       0.00000000
Si       1.21232298       3.18764349      -0.66442813       0.00000000
Si       1.80153228      -1.73431485       2.42632647       0.00000000
Si      -3.12442430      -0.24459435      -1.57654919       0.00000000
Si      -0.76587924       3.41255952       0.68368742       0.00000000
Si      -2.45874974      -2.06768970       1.80446788       0.00000000
Si       2.09572968       0.56855358      -3.29701089       0.00000000
