10
Lattice="16.28999089631971 0.0 0.0 0.0 16.28999089631971 0.0 0.0 0.0 34.33025523377368" Properties=species:S:1:pos:R:3:initial_magmoms:R:1 pbc="T T T"
Si      -1.86923256      -0.31915368       1.41214151       0.00000000
Si       0.81070769       2.17212489       0.58244744       0.00000000
Si       1.54807454      -1.90330731       0.15057258       0.00000000
Si      -0.71316806      -0.01949913      -2.39316343       0.00000000
Si      -2.15300436      -1.97175789      -1.40115582       0.00000000
Si       1.44031619       1.31044905      -2.78830489       0.00000000
Si      -2.15432385      -2.59867854       0.87113071       0.00000000
Si       2.06510285      -1.47396807       2.78363597       0.00000000
Si       2.42726213       2.76229530      -1.05558728       0.00000000
Si       1.54234046       2.20017627       2.83935401       0.00000000
