10
Lattice="16.28999089631971 0.0 0.0 0.0 16.28999089631971 0.0 0.0 0.0 34.33025523377368" Properties=species:S:1:pos:R:3:initial_magmoms:R:1 pbc="T T T"
Si      -1.78776953       1.29622788      -0.68451134       0.00000000
Si      -0.81977307      -2.17139184       0.11054348       0.00000000
Si       0.20680155       0.82218888       2.21492064       0.00000000
Si       1.76515182       0.04108338      -1.58859912       0.00000000
Si       2.87148717      -1.77608241      -0.54077048       0.00000000
Si      -0.82127990       3.32853570      -0.21978242       0.00000000
Si       1.25107200      -3.28435722       0.37234616       0.00000000
Si      -1.29333966      -2.61811251      -2.14337635       0.00000000
Si      -1.26423106       2.80894986       2.10674595       0.00000000
Si      -2.16918359       1.19589777      -2.96009358       0.00000000
