10
Lattice="16.28999089631971 0.0 0.0 0.0 16.28999089631971 0.0 0.0 0.0 34.33025523377368" Properties=species:S:1:pos:R:3:initial_magmoms:R:1 pbc="T T T"
Si       1.10633535      -1.81716579       1.04782864       0.00000000
Si      -1.76515182      -0.04108338       1.58859912       0.00000000
Si       1.23271317       2.02398363       0.16626152       0.00000000
Si      -0.51702831      -0.42933924      -2.63306339       0.00000000
Si       1.74708621       0.42098247      -3.04914631       0.00000000
Si      -1.17885843      -2.79598302      -1.97543265       0.00000000
Si       2.30772285      -2.74569579      -0.73813523       0.00000000
Si      -0.52276239       3.67414434       0.05571804       0.00000000
Si      -2.06510285       1.47396807      -2.78363597       0.00000000
Si      -2.58492489      -2.21247522       1.69914260       0.00000000
