10
Lattice="16.28999089631971 0.0 0.0 0.0 16.28999089631971 0.0 0.0 0.0 34.33025523377368" Properties=species:S:1:pos:R:3:initial_magmoms:R:1 pbc="T T T"
Si       1.35738054      -1.35327546      -1.36047444       0.00000000
Si      -1.35833676       1.36189287      -1.35982217       0.00000000
Si       1.35228177       1.36992384       1.37204375       0.00000000
Si      -1.36128851      -1.35596331       1.37791422       0.00000000
Si      -2.61937580       0.13211190       2.77419515       0.00000000
Si       2.70780525      -2.71316466       0.00000000       0.00000000
Si      -2.71412088      -2.71417464      -0.00027464       0.00000000
Si       2.71156824       2.71678104      -0.00116723       0.00000000
Si      -0.00216657      -2.71213839      -2.71627997       0.00000000
Si       2.71296918       0.00314397      -2.71700091       0.00000000
