10
Lattice="16.28999089631971 0.0 0.0 0.0 16.28999089631971 0.0 0.0 0.0 34.33025523377368" Properties=species:S:1:pos:R:3:initial_magmoms:R:1 pbc="T T T"
Si      -1.44426963       1.25592642      -1.40496648       0.00000000
Si       1.25808729      -1.48807521      -1.39628092       0.00000000
Si      -1.95243618      -0.89368569       1.09355656       0.00000000
Si       1.75149347       0.88000209       1.49906576       0.00000000
Si       2.63139782      -2.66786217       0.18490286       0.00000000
Si       2.74606313       2.60076366       0.14501108       0.00000000
Si      -0.09936594       2.58284466      -2.77659826       0.00000000
Si       2.61937580      -0.13211190      -2.77419515       0.00000000
Si      -2.77687308       2.70303228       0.01404108       0.00000000
Si      -3.62509338       0.86322339       1.22524749       0.00000000
