10
Lattice="16.28999089631971 0.0 0.0 0.0 16.28999089631971 0.0 0.0 0.0 34.33025523377368" Properties=species:S:1:pos:R:3:initial_magmoms:R:1 pbc="T T T"
Si       0.99456966       1.72076157      -1.35405468       0.00000000
Si       1.76798628      -1.69119522       0.06495288       0.00000000
Si      -1.75149347      -0.88000209      -1.49906576       0.00000000
Si       0.88457958       0.92789469       2.69753564       0.00000000
Si       1.77070671      -1.32941061       2.56587904       0.00000000
Si       2.22016410       0.35780985      -2.90121716       0.00000000
Si      -0.49340618      -2.36807730      -2.89534668       0.00000000
Si       0.87990435      -3.54786426      -1.31416290       0.00000000
Si       3.61222605      -0.81204021      -1.35546222       0.00000000
Si       2.92245858       2.66318694      -0.11651695       0.00000000
