10
Lattice="16.28999089631971 0.0 0.0 0.0 16.28999089631971 0.0 0.0 0.0 34.33025523377368" Properties=species:S:1:pos:R:3:initial_magmoms:R:1 pbc="T T T"
Si       1.33505672       1.85476311      -0.46040331       0.00000000
Si      -0.75740355      -0.16312806      -2.24725976       0.00000000
Si       1.38153209      -1.75040937       0.94579906       0.00000000
Si      -1.39002260       1.10568375       1.67778917       0.00000000
Si       2.41441583       1.82882943       1.57668651       0.00000000
Si      -0.77195215      -3.08035755       1.34094052       0.00000000
Si       2.36847803      -0.29856312       2.67851667       0.00000000
Si      -2.92522529      -1.92917583       0.83158224       0.00000000
Si      -3.53132732       0.40327524       1.07429728       0.00000000
Si       2.75347589       1.06308540      -2.28413048       0.00000000
