10
Lattice="16.28999089631971 0.0 0.0 0.0 16.28999089631971 0.0 0.0 0.0 34.33025523377368" Properties=species:S:1:pos:R:3:initial_magmoms:R:1 pbc="T T T"
Si      -1.61655444      -0.59017041       1.63803471       0.00000000
Si       0.04593780       2.12739255      -1.10183016       0.00000000
Si       2.22697332      -0.05286105       0.96011478       0.00000000
Si      -0.98694594      -1.45184625      -1.73271761       0.00000000
Si      -2.36847803       0.29856312      -2.67851667       0.00000000
Si       3.34150254      -1.02384279      -0.88088051       0.00000000
Si      -3.23024347       1.08963810       1.30249061       0.00000000
Si       3.01135311       2.22755976       0.33544111       0.00000000
Si       2.25811980       2.43133137      -1.84724341       0.00000000
Si      -2.42726213      -2.76229530       1.05558728       0.00000000
