10
Lattice="16.28999089631971 0.0 0.0 0.0 16.28999089631971 0.0 0.0 0.0 34.33025523377368" Properties=species:S:1:pos:R:3:initial_magmoms:R:1 pbc="T T T"
Si      -1.61368903       1.67980851      -0.33554410       0.00000000
Si       0.73163277       0.02805138       2.25690657       0.00000000
Si       1.61655444       0.59017041      -1.63803471       0.00000000
Si      -0.81070769      -2.17212489      -0.58244744       0.00000000
Si       0.62960850      -0.86167584      -3.37075232       0.00000000
Si      -0.50497371       3.69875853       0.32740783       0.00000000
Si      -2.67994025      -2.49127857       0.82969407       0.00000000
Si       2.48710833      -1.62210933       2.36745005       0.00000000
Si      -1.33203656      -0.35864064       3.57000524       0.00000000
Si       3.84352776       0.53730936      -0.67791993       0.00000000
