10
Lattice="16.28999089631971 0.0 0.0 0.0 16.28999089631971 0.0 0.0 0.0 34.33025523377368" Properties=species:S:1:pos:R:3:initial_magmoms:R:1 pbc="T T T"
Si       1.75993087      -1.32851466      -0.80425534       0.00000000
Si      -0.01254656       1.94631291      -1.42137635       0.00000000
Si      -1.91596368      -1.06381845      -1.00711293       0.00000000
Si       1.23431773       0.91140921       1.86387097       0.00000000
Si      -1.54038144      -1.93909644       1.99630000       0.00000000
Si       0.22245135      -2.70519885      -1.92757625       0.00000000
Si       2.80996798       2.33295606       0.47969692       0.00000000
Si      -2.07350427       3.16617327      -1.13492454       0.00000000
Si       0.08352046       1.21319775      -3.81385318       0.00000000
Si       2.65557137      -2.97496125       0.69072512       0.00000000
