10
Lattice="16.28999089631971 0.0 0.0 0.0 16.28999089631971 0.0 0.0 0.0 34.33025523377368" Properties=species:S:1:pos:R:3:initial_magmoms:R:1 pbc="T T T"
Si      -1.23431773      -0.91140921      -1.86387097       0.00000000
Si       1.20585096      -1.44241434       1.58985904       0.00000000
Si      -1.49658273       1.24667370       1.57590378       0.00000000
Si       1.57565025       1.42154685      -1.38417405       0.00000000
Si       0.52561314      -2.23992387      -2.66812631       0.00000000
Si      -1.24686429       1.03490370      -3.28524732       0.00000000
Si       2.72113047      -2.62322757       0.23934724       0.00000000
Si       2.74582611       2.72272689       0.13227111       0.00000000
Si       2.56712481      -0.10150299       2.96909155       0.00000000
Si      -2.86000991       2.68594407       0.23756207       0.00000000
