10
Lattice="16.290000149 0.0 0.0 0.0 16.290000149 0.0 0.0 0.0 29.1751946751" Properties=species:S:1:pos:R:3:initial_magmoms:R:1 pbc="T T T"
Si      -1.34656236      -1.32219415       1.38567587       0.00000000
Si       1.35969373       1.37135737       1.36055603       0.00000000
Si      -1.38603140       1.33656193      -1.36941070       0.00000000
Si       1.38710980      -1.36407574      -1.35327973       0.00000000
Si       2.69273702       0.11124441      -2.62854704       0.00000000
Si      -2.68293044      -2.67209759       0.00870588       0.00000000
Si      -2.60987582      -0.14315652      -2.76933865       0.00000000
Si      -0.02647125       2.78124060      -2.60562001       0.00000000
Si       0.02168199      -2.68089419       2.73800449       0.00000000
Si      -2.70332552       0.05475069       2.72125793       0.00000000
