10
Lattice="16.290000149 0.0 0.0 0.0 16.290000149 0.0 0.0 0.0 29.1751946751" Properties=species:S:1:pos:R:3:initial_magmoms:R:1 pbc="T T T"
Si      -1.34294761       1.35840682      -1.36852086       0.00000000
Si       1.32724731      -1.35001747      -1.39579966       0.00000000
Si       1.34755768       1.37922544       1.35183265       0.00000000
Si      -1.34465806      -1.37091754       1.36370695       0.00000000
Si       2.66636351      -2.70796817      -0.03174261       0.00000000
Si      -2.68703552       2.72345996      -0.01727172       0.00000000
Si      -2.70941798      -2.71194293      -0.00834411       0.00000000
Si       2.71814942       0.03759732       2.70955868       0.00000000
Si      -2.72780939      -0.02679705       2.70010592       0.00000000
Si      -2.71404434       0.00793323      -2.72166639       0.00000000
