10
Lattice="16.290000149 0.0 0.0 0.0 16.290000149 0.0 0.0 0.0 29.1751946751" Properties=species:S:1:pos:R:3:initial_magmoms:R:1 pbc="T T T"
Si       0.34709103      -0.88461217      -2.13454477       0.00000000
Si      -1.82221571       1.45826452       0.16877850       0.00000000
Si       1.62282610       1.68537971       0.07139170       0.00000000
Si       0.22913514      -1.51472566       1.83453624       0.00000000
H       -0.90187957      -1.45026613       2.83810459       0.00000000
Si       1.05829615       2.72253143       2.07949118       0.00000000
Si       2.29063466      -0.82235179       2.73768357       0.00000000
Si       1.40392108       0.87731425      -3.31564417       0.00000000
Si      -3.65282076       0.16646751       0.80520620       0.00000000
H       -1.81830611       0.32384520       3.28810279       0.00000000
