10
Lattice="16.290000149 0.0 0.0 0.0 16.290000149 0.0 0.0 0.0 29.1751946751" Properties=species:S:1:pos:R:3:initial_magmoms:R:1 pbc="T T T"
Si       1.34752510      -1.33532389       1.37645651       0.00000000
Si      -1.27202095       1.36099693       1.42261167       0.00000000
Si       1.34234488       1.36845775      -1.36318180       0.00000000
Si      -1.37911141      -1.36199062      -1.33333557       0.00000000
Si       2.65978235       0.13242141       2.65584715       0.00000000
Si       0.01720224      -2.69858351      -2.68207565       0.00000000
Si      -2.66313809       2.71718831       0.07212108       0.00000000
Si      -2.68323995       0.01796787      -2.70842085       0.00000000
Si      -0.06059228      -2.62929562       2.76799659       0.00000000
Si       2.72015309       0.02259423      -2.72125793       0.00000000
