10
Lattice="16.290000149 0.0 0.0 0.0 16.290000149 0.0 0.0 0.0 29.1751946751" Properties=species:S:1:pos:R:3:initial_magmoms:R:1 pbc="T T T"
Si       1.34702011       1.35715249       1.36198561       0.00000000
Si      -1.35120664       1.36251190      -1.36020593       0.00000000
Si       1.37694484      -1.34811154      -1.35095739       0.00000000
Si      -1.36401058      -1.34540740       1.36703292       0.00000000
Si      -0.05062932      -2.75239101      -2.59382360       0.00000000
Si       2.67729410      -2.69804756       0.06701542       0.00000000
Si      -0.02270826       2.72051147       2.69864716       0.00000000
Si       2.69418683      -0.00260640       2.72890183       0.00000000
Si       2.69917157       2.73196334       0.01546285       0.00000000
Si      -2.66898620       0.02599884      -2.76200693       0.00000000
