10
Lattice="16.290000149 0.0 0.0 0.0 16.290000149 0.0 0.0 0.0 29.1751946751" Properties=species:S:1:pos:R:3:initial_magmoms:R:1 pbc="T T T"
Si       1.34656236       1.32219415      -1.38567587       0.00000000
Si      -1.33636808      -1.34990344      -1.37696999       0.00000000
Si      -1.35676316       1.37694484       1.33558206       0.00000000
Si       1.36824435      -1.35870004       1.35232862       0.00000000
Si      -2.62945200      -2.68297931       0.07521365       0.00000000
Si       2.70625610       2.69355152      -0.02511984       0.00000000
Si      -2.70081849       0.02225214       2.71092991       0.00000000
Si      -0.03946904       2.65875608      -2.75508657       0.00000000
Si       0.00749340       2.71811684       2.70147715       0.00000000
Si       0.07525817      -2.67892310      -2.74336398       0.00000000
