10
Lattice="16.290000149 0.0 0.0 0.0 16.290000149 0.0 0.0 0.0 29.1751946751" Properties=species:S:1:pos:R:3:initial_magmoms:R:1 pbc="T T T"
Si       0.63731368      -0.41322843       2.13850384       0.00000000
Si      -1.07790931      -1.75813085      -1.06588656       0.00000000
Si      -1.70318468       1.59873319      -0.01619223       0.00000000
Si       1.79196518       0.59179942      -1.43824957       0.00000000
Si      -0.31459248       3.03691215      -1.19268196       0.00000000
H        3.08879580       1.17915166      -0.55030252       0.00000000
H       -0.58432231      -3.04567617       1.34380947       0.00000000
Si      -2.00445194      -0.70923403      -2.89756363       0.00000000
Si       0.76144348       1.92697670      -3.05712277       0.00000000
Si      -1.26703621      -1.20831076       3.25760012       0.00000000
