10
Lattice="16.290000149 0.0 0.0 0.0 16.290000149 0.0 0.0 0.0 29.1751946751" Properties=species:S:1:pos:R:3:initial_magmoms:R:1 pbc="T T T"
Si      -1.34702011      -1.35715249      -1.36198561       0.00000000
Si      -1.36972837       1.36335898       1.33666154       0.00000000
Si       1.35215146       1.37481085      -1.34652276       0.00000000
Si       1.34716672      -1.35975889       1.36691622       0.00000000
Si      -0.00534312       2.71891505       2.68408873       0.00000000
Si      -2.71103069      -2.70255989       0.00504731       0.00000000
Si       0.02992473      -2.70526403      -2.71294300       0.00000000
Si      -2.69822675       0.00535941      -2.72219154       0.00000000
Si       2.77013082       0.04339656      -2.64934108       0.00000000
Si       2.71862183      -2.70515000       0.02727881       0.00000000
