10
Lattice="16.290000149 0.0 0.0 0.0 16.290000149 0.0 0.0 0.0 29.1751946751" Properties=species:S:1:pos:R:3:initial_magmoms:R:1 pbc="T T T"
Si      -1.33107220      -1.33813392       1.33337058       0.00000000
Si       1.49343463      -1.23927642      -1.28260574       0.00000000
Si      -1.25315713       1.37095012      -1.41109622       0.00000000
Si       1.42548904       1.43268922       1.22612257       0.00000000
Si       0.65119276       2.16603245      -2.53019250       0.00000000
H       -0.57044323      -0.46641528      -3.32488688       0.00000000
Si       2.34442424       0.49094802      -2.66561529       0.00000000
Si      -2.66458790       0.08114049       2.61585379       0.00000000
Si       0.09736533      -2.68641650       2.59796940       0.00000000
Si      -2.69131979      -2.62178002      -0.07397371       0.00000000
