10
Lattice="16.290000149 0.0 0.0 0.0 16.290000149 0.0 0.0 0.0 29.1751946751" Properties=species:S:1:pos:R:3:initial_magmoms:R:1 pbc="T T T"
Si       1.27202095      -1.36099693      -1.42261167       0.00000000
Si       1.35824881       1.41260365       1.31113325       0.00000000
Si      -1.39111714       1.35619138      -1.35049059       0.00000000
Si      -1.29489211      -1.35834166       1.44679790       0.00000000
Si       2.61954605      -2.69632082      -0.04615516       0.00000000
Si      -0.07714944       2.65719224       2.67912895       0.00000000
Si      -2.72197757      -2.62995536       0.04236238       0.00000000
Si       2.61436583       0.00746082      -2.78579346       0.00000000
Si      -0.03520269       2.70317891      -2.74418964       0.00000000
Si      -0.10709046      -2.72298755      -2.75594724       0.00000000
