10
Lattice="16.290000149 0.0 0.0 0.0 16.290000149 0.0 0.0 0.0 29.1751946751" Properties=species:S:1:pos:R:3:initial_magmoms:R:1 pbc="T T T"
Si      -1.35711991      -1.36394542      -1.33461928       0.00000000
Si      -1.34643367       1.34990344       1.36583674       0.00000000
Si       1.33667596      -1.37373571       1.35340811       0.00000000
Si       1.34021089       1.35371530      -1.38051186       0.00000000
Si      -2.70352100       2.67942809      -0.02080191       0.00000000
Si       2.67853866      -0.01115865       2.70675786       0.00000000
Si      -2.68858307       0.00213399      -2.70862507       0.00000000
Si       0.00742824      -2.71065602      -2.68761893       0.00000000
Si       2.69023162       2.71182890      -0.02161882       0.00000000
Si      -2.70073541      -0.02445129       2.70853755       0.00000000
