10
Lattice="16.290000149 0.0 0.0 0.0 16.290000149 0.0 0.0 0.0 29.1751946751" Properties=species:S:1:pos:R:3:initial_magmoms:R:1 pbc="T T T"
Si       1.33107220       1.33813392      -1.33337058       0.00000000
Si      -1.33351570       1.41927441       1.28248321       0.00000000
Si       1.42843753      -1.34828259       1.26459881       0.00000000
Si      -1.36024759      -1.28364610      -1.40734429       0.00000000
Si       0.04887000      -2.69162116       2.59793439       0.00000000
Si      -2.68343543       0.04591662       2.61864877       0.00000000
Si       0.05483214       2.76932446       2.60473221       0.00000000
Si       2.78016546       0.04256251       2.59525027       0.00000000
Si      -2.71264340      -2.67857287      -0.09977917       0.00000000
Si      -0.04553055      -2.77601965      -2.61468678       0.00000000
