10
Lattice="16.290000149 0.0 0.0 0.0 16.290000149 0.0 0.0 0.0 29.1751946751" Properties=species:S:1:pos:R:3:initial_magmoms:R:1 pbc="T T T"
Si       1.30416112       1.29332827      -1.49511203       0.00000000
Si       1.26245872      -1.64445922       1.14617670       0.00000000
Si      -0.99043201       1.76834468       1.27443085       0.00000000
Si      -1.29645595      -1.67699036      -1.17576035       0.00000000
H        0.23175783      -2.75392227       1.36245242       0.00000000
H       -3.05325102      -1.04700718       0.35885489       0.00000000
H       -2.48266118      -1.16615224      -1.97466470       0.00000000
H       -0.29765088      -1.20984202       3.17586582       0.00000000
H       -1.85036483       0.49114350      -3.07874159       0.00000000
Si      -2.52004673       2.75571417      -0.23430599       0.00000000
