10
Lattice="16.290000149 0.0 0.0 0.0 16.290000149 0.0 0.0 0.0 29.1751946751" Properties=species:S:1:pos:R:3:initial_magmoms:R:1 pbc="T T T"
Si      -1.42843753       1.34828259      -1.26459881       0.00000000
Si      -1.37956753      -1.34333857       1.33333557       0.00000000
Si       1.35172792       1.39084510       1.33065145       0.00000000
Si       1.35053875      -1.33064866      -1.39994254       0.00000000
Si      -0.09736533       2.68641650      -2.59796940       0.00000000
Si      -0.00807984      -2.69032610       2.67317721       0.00000000
Si       2.70177797      -2.67320531      -0.03693580       0.00000000
Si       2.71052570       0.03808602       2.68470141       0.00000000
Si      -2.72973161       0.03588687       2.67857462       0.00000000
Si      -0.06830397      -2.79226893      -2.62644439       0.00000000
