10
Lattice="16.290000149 0.0 0.0 0.0 16.290000149 0.0 0.0 0.0 29.1751946751" Properties=species:S:1:pos:R:3:initial_magmoms:R:1 pbc="T T T"
Si      -0.56452996       1.03715173       2.00809947       0.00000000
Si      -1.62282610      -1.68537971      -0.07139170       0.00000000
Si       2.19652733      -0.72236377      -0.46338962       0.00000000
Si       0.04158837       2.14510794      -0.98008231       0.00000000
Si       0.68126410       2.82192650       1.16560738       0.00000000
Si       1.90876448       0.16148277      -2.70573673       0.00000000
Si       1.92779120      -2.75475306       0.72961327       0.00000000
Si      -3.44504181      -0.22711518       0.09738680       0.00000000
Si      -0.21890502      -0.80806546      -3.38703588       0.00000000
Si      -2.79808446       1.54513909       1.68583027       0.00000000
