10
Lattice="16.290000149 0.0 0.0 0.0 16.290000149 0.0 0.0 0.0 29.1751946751" Properties=species:S:1:pos:R:3:initial_magmoms:R:1 pbc="T T T"
H       -1.26138651      -1.28629099       0.54799768       0.00000000
Si      -1.39365350       1.28537875       1.32907278       0.00000000
Si       1.48420309      -1.38751705       1.18664549       0.00000000
Si       0.58582587       1.69614740      -1.55147850       0.00000000
Si      -1.70388026      -2.45102600      -0.37469703       0.00000000
Si       0.02148325       0.66174868      -3.57787082       0.00000000
Si       0.10530345       2.64868886       2.52547195       0.00000000
Si      -2.54217996       2.77570200      -0.05368236       0.00000000
Si       0.12244704      -2.79722109       2.53472341       0.00000000
Si       2.62794029       2.61149879      -0.77296761       0.00000000
