10
Lattice="16.290000149 0.0 0.0 0.0 16.290000149 0.0 0.0 0.0 29.1751946751" Properties=species:S:1:pos:R:3:initial_magmoms:R:1 pbc="T T T"
Si       1.31288795       1.33550667      -1.36644942       0.00000000
Si      -1.27485541      -1.46381941      -1.29946317       0.00000000
Si      -1.29902977       1.41230766       1.34325514       0.00000000
Si       1.23305527      -1.48880827       1.36038098       0.00000000
H       -1.92147068      -2.29099304      -0.22324859       0.00000000
Si      -2.59115258      -0.02642238       2.62118702       0.00000000
Si       2.54390181       2.69670364       0.08011508       0.00000000
Si      -0.15705189       2.62711276      -2.63907141       0.00000000
Si       2.69019904      -0.06019155      -2.66678784       0.00000000
Si       2.57243537      -2.79151959      -0.06482728       0.00000000
