10
Lattice="16.290000149 0.0 0.0 0.0 16.290000149 0.0 0.0 0.0 29.1751946751" Properties=species:S:1:pos:R:3:initial_magmoms:R:1 pbc="T T T"
Si       1.38088702       1.26135100       1.40972802       0.00000000
Si      -1.48420309       1.38751705      -1.18664549       0.00000000
Si       1.28467828      -1.34652490      -1.44426246       0.00000000
Si      -1.36175605      -1.40970403       1.34807791       0.00000000
H       -2.74558960       0.10122606      -0.63864781       0.00000000
Si      -3.18808335      -1.06350895      -1.56134252       0.00000000
Si       2.62112618      -2.72922809      -0.03352510       0.00000000
Si      -0.02567304       2.66110184       2.69421848       0.00000000
Si       2.59268384      -0.11728800       2.86240181       0.00000000
Si       3.26003628       2.07619310       0.22463482       0.00000000
