10
Lattice="16.290000149 0.0 0.0 0.0 16.290000149 0.0 0.0 0.0 29.1751946751" Properties=species:S:1:pos:R:3:initial_magmoms:R:1 pbc="T T T"
Si       1.42008076       1.31114953       1.31279623       0.00000000
Si       1.37841094      -1.34759026      -1.32143209       0.00000000
Si      -1.34952877      -1.35770635       1.35232862       0.00000000
Si      -1.36251190       1.39439143      -1.30386863       0.00000000
Si       0.05809014       2.68102451       2.57517773       0.00000000
Si       0.00918756      -2.70966233      -2.64989541       0.00000000
Si       2.73087191       0.04276125      -2.64811572       0.00000000
Si      -2.71629236       0.04083903      -2.66497898       0.00000000
Si       0.01236411       2.73681776      -2.64534408       0.00000000
Si       2.73549827      -2.67711491       0.06520656       0.00000000
