10
Lattice="16.290000149 0.0 0.0 0.0 16.290000149 0.0 0.0 0.0 29.1751946751" Properties=species:S:1:pos:R:3:initial_magmoms:R:1 pbc="T T T"
Si       1.30219003       1.23497749      -1.50091789       0.00000000
Si       1.44935389      -1.35285193       1.28023672       0.00000000
Si      -1.50309460       1.33869592       1.24709370       0.00000000
Si      -1.43540965      -1.41043708      -1.31688076       0.00000000
Si      -2.81801201      -0.15092685       2.51040880       0.00000000
Si       2.50576040      -2.81940807      -0.19763277       0.00000000
Si      -0.11806992       2.60833853      -2.75232952       0.00000000
Si       0.13491378      -2.70923879       2.66494981       0.00000000
Si       2.48525129      -0.21714570      -2.91258886       0.00000000
Si       3.15675768       2.16670034      -0.39357338       0.00000000
