10
Lattice="16.290000149 0.0 0.0 0.0 16.290000149 0.0 0.0 0.0 29.1751946751" Properties=species:S:1:pos:R:3:initial_magmoms:R:1 pbc="T T T"
Si       1.43882415      -1.34930071       1.28694701       0.00000000
Si      -1.25747398      -1.36831114      -1.45557964       0.00000000
Si       1.37878561       1.32724405      -1.38926442       0.00000000
Si      -1.42930090       1.28213704       1.41289633       0.00000000
Si       0.08920404      -2.75911878       2.59262450       0.00000000
Si      -2.69068448       2.67353926      -0.01849707       0.00000000
Si      -0.02953377       2.69887021       2.67180598       0.00000000
Si      -2.59527395      -2.81544960      -0.19906235       0.00000000
Si      -2.72710892      -0.30771810       2.68901934       0.00000000
Si      -2.64425798      -0.02500515      -2.80254003       0.00000000
