10
Lattice="16.290000149 0.0 0.0 0.0 16.290000149 0.0 0.0 0.0 29.1751946751" Properties=species:S:1:pos:R:3:initial_magmoms:R:1 pbc="T T T"
Si      -0.27157059       0.82406224       2.15709719       0.00000000
Si       0.92499508       1.72928126      -1.27775683       0.00000000
Si       1.65291374      -1.65524321       0.08802156       0.00000000
Si      -1.76511926      -1.01017549      -1.16172708       0.00000000
Si      -0.42573915      -2.31288680      -2.58693534       0.00000000
Si      -2.53847072       1.31722570       2.06073153       0.00000000
Si       2.44884314       0.46416726      -2.49929305       0.00000000
Si       3.48351879      -0.36344619      -0.54840613       0.00000000
Si       2.12967317      -2.07549263       2.29775081       0.00000000
Si       1.00261693       2.82086113       2.28940670       0.00000000
