10
Lattice="16.290000149 0.0 0.0 0.0 16.290000149 0.0 0.0 0.0 29.1751946751" Properties=species:S:1:pos:R:3:initial_magmoms:R:1 pbc="T T T"
Si       1.29424051       1.28824726       1.50126507       0.00000000
Si      -1.34617303      -1.35988775       1.40121166       0.00000000
Si       1.46797336      -1.29966362      -1.34789399       0.00000000
Si      -1.33644790       1.38270319      -1.41073736       0.00000000
Si      -0.01371618      -2.54690748      -2.72700545       0.00000000
Si      -2.62112618       2.72922809       0.03352510       0.00000000
Si       2.68737761      -2.70959571       0.10148533       0.00000000
Si       3.06551739       0.19175269      -2.29594194       0.00000000
Si       2.27449127       3.07418513       0.34032573       0.00000000
Si       2.35685351       2.38809920      -1.89209890       0.00000000
