10
Lattice="16.290000149 0.0 0.0 0.0 16.290000149 0.0 0.0 0.0 29.1751946751" Properties=species:S:1:pos:R:3:initial_magmoms:R:1 pbc="T T T"
Si      -1.33185412      -1.35462754      -1.38325433       0.00000000
Si       1.33131655      -1.36601425       1.37315971       0.00000000
Si      -1.37129221       1.33908688       1.36621602       0.00000000
Si       1.35107632       1.35058762      -1.37514363       0.00000000
Si      -2.69449634       2.70313004      -0.02736633       0.00000000
Si       0.00130320       2.72246627       2.67699916       0.00000000
Si       2.70174539       0.00591490       2.70334436       0.00000000
Si       2.70129253      -2.70467759      -0.00746885       0.00000000
Si      -2.69172704      -2.71826345      -0.04011589       0.00000000
Si      -2.69065190      -0.00186846      -2.73730429       0.00000000
