10
Lattice="16.290000149 0.0 0.0 0.0 16.290000149 0.0 0.0 0.0 29.1751946751" Properties=species:S:1:pos:R:3:initial_magmoms:R:1 pbc="T T T"
Si       1.31471704      -1.49237355      -1.20734249       0.00000000
Si       1.36024759       1.28364610       1.40734429       0.00000000
Si      -1.35239581      -1.39492677       1.30756512       0.00000000
Si      -1.37850868       1.32488423      -1.36567336       0.00000000
Si       2.69131979       2.62178002       0.07397371       0.00000000
Si      -2.70119153       2.64857707       0.02898847       0.00000000
Si      -2.67918374      -0.04323143       2.68833956       0.00000000
Si       0.02673189       2.70292051       2.68982750       0.00000000
Si       0.03098358      -2.75263312       2.64696913       0.00000000
Si      -2.68946273      -2.71832638      -0.09708630       0.00000000
