10
Lattice="16.290000149 0.0 0.0 0.0 16.290000149 0.0 0.0 0.0 29.1751946751" Properties=species:S:1:pos:R:3:initial_magmoms:R:1 pbc="T T T"
H       -1.17574705      -0.54889155      -1.07128397       0.00000000
Si      -1.55193202       1.23514039       1.21100398       0.00000000
Si       1.14852646      -1.49032324       1.38275514       0.00000000
Si       1.66164843       0.80022997      -1.44758563       0.00000000
Si      -2.47257767      -1.13624380      -1.95923102       0.00000000
Si      -0.15317487       2.55114434       2.57996538       0.00000000
Si       3.12800583      -1.07955460      -1.49779614       0.00000000
Si       2.64748340      -0.12701313       2.57915431       0.00000000
Si       2.77811780       2.47296863      -0.18088621       0.00000000
Si       2.54217996      -2.77570200       0.05368236       0.00000000
