10
Lattice="16.290000149 0.0 0.0 0.0 16.290000149 0.0 0.0 0.0 29.1751946751" Properties=species:S:1:pos:R:3:initial_magmoms:R:1 pbc="T T T"
Si       0.86148037      -1.83400967       1.12321582       0.00000000
Si      -1.71693344       0.76014028       1.38197062       0.00000000
Si      -1.07157250      -0.08490348      -2.10242288       0.00000000
Si       1.79895359       1.59135382       0.12460726       0.00000000
H        2.33039855       1.84798649      -1.26235232       0.00000000
H       -1.14077242      -3.01441566      -1.08663013       0.00000000
H        1.65579707       0.92861146      -2.88262593       0.00000000
Si      -0.35140788       2.08756352       2.73012719       0.00000000
Si       2.57031767      -2.29043918      -0.40048790       0.00000000
Si      -0.61838470       2.12509568      -2.70579508       0.00000000
