10
Lattice="16.290000149 0.0 0.0 0.0 16.290000149 0.0 0.0 0.0 29.1751946751" Properties=species:S:1:pos:R:3:initial_magmoms:R:1 pbc="T T T"
Si       2.19796085      -0.38530737       0.80978670       0.00000000
Si       0.05548374       2.29285010       0.67409287       0.00000000
Si       0.13579344      -0.41888106      -2.35683058       0.00000000
Si      -1.49534056      -1.39070338       1.29114824       0.00000000
H       -2.17842914      -0.20364129      -1.39104411       0.00000000
H       -0.86092651       2.45992034      -1.87596502       0.00000000
Si       0.48001743       2.03201462       2.96004552       0.00000000
Si      -0.72720190       1.65591110      -3.14820773       0.00000000
Si       2.11559861       0.30077856       3.04221133       0.00000000
Si       2.43328619      -0.35710938      -2.80898774       0.00000000
