10
Lattice="16.290000149 0.0 0.0 0.0 16.290000149 0.0 0.0 0.0 29.1751946751" Properties=species:S:1:pos:R:3:initial_magmoms:R:1 pbc="T T T"
Si      -1.21735171       1.86447197       0.66391073       0.00000000
Si      -1.53715699      -0.71004853      -1.61265889       0.00000000
Si       1.62090388       0.69884101      -1.55766364       0.00000000
Si      -0.04781115      -1.47848041       1.91966946       0.00000000
H        0.35715825      -2.56171167      -0.82574553       0.00000000
H        0.07947891       2.45182421       1.55185778       0.00000000
H        1.54776178      -0.36228960      -2.63215689       0.00000000
Si      -2.78236461      -2.03866094      -0.14520494       0.00000000
H       -0.26500572       3.12199482      -2.01723131       0.00000000
Si      -3.02172987       1.16053219      -1.96562039       0.00000000
