10
Lattice="16.290000149 0.0 0.0 0.0 16.290000149 0.0 0.0 0.0 29.1751946751" Properties=species:S:1:pos:R:3:initial_magmoms:R:1 pbc="T T T"
Si       0.07314210       1.06113061       1.07449324       0.00000000
H        1.15417746       1.78795784      -1.91870668       0.00000000
Si      -2.46036017      -1.41581278      -1.02617912       0.00000000
Si      -1.54776178       0.36228960       2.63215689       0.00000000
Si      -0.46182150      -2.29841802      -1.99409538       0.00000000
H       -1.19060353      -2.19942206       1.80641135       0.00000000
Si       2.27112739       1.24905205       1.73111018       0.00000000
Si      -0.37038573       3.19551159       0.17726848       0.00000000
Si      -3.08491878      -0.34775892       1.01949800       0.00000000
Si       2.29179451       0.82463239      -2.21343449       0.00000000
