10
Lattice="16.290000149 0.0 0.0 0.0 16.290000149 0.0 0.0 0.0 29.1751946751" Properties=species:S:1:pos:R:3:initial_magmoms:R:1 pbc="T T T"
Si      -1.40450150       1.15807240      -1.46681209       0.00000000
Si      -1.46208665      -1.17980326       1.41246162       0.00000000
Si       1.46920603      -1.25797897      -1.34838997       0.00000000
Si       1.22384442       1.47971845       1.39992795       0.00000000
H       -2.29872476       1.91954846      -0.49790387       0.00000000
Si       2.66175947       0.41746383      -2.54813233       0.00000000
Si      -0.07305462      -2.52894107       2.77804453       0.00000000
Si      -2.86084380      -2.49580721       0.04350022       0.00000000
Si       2.60987582       0.14315652       2.76933865       0.00000000
Si      -0.25139755       2.78062158      -2.66270332       0.00000000
