10
Lattice="16.290000149 0.0 0.0 0.0 16.290000149 0.0 0.0 0.0 29.1751946751" Properties=species:S:1:pos:R:3:initial_magmoms:R:1 pbc="T T T"
Si       2.29749275       0.06177168      -0.45215717       0.00000000
Si      -0.86299534       2.07479216      -0.79137716       0.00000000
Si      -0.13579344       0.41888106       2.35683058       0.00000000
Si      -0.92589103      -2.08008152      -0.80249290       0.00000000
H       -2.31422258       0.21523977       0.96578647       0.00000000
H       -0.99671995       2.87880141       0.48086556       0.00000000
Si      -3.60401592       0.16843860       0.15988007       0.00000000
Si      -3.00003159      -1.34235791      -1.62482494       0.00000000
Si       3.07881003       2.10064439       0.43336834       0.00000000
Si       2.06216741       0.03357369       3.16661728       0.00000000
