10
Lattice="16.290000149 0.0 0.0 0.0 16.290000149 0.0 0.0 0.0 29.1751946751" Properties=species:S:1:pos:R:3:initial_magmoms:R:1 pbc="T T T"
Si       1.35239581       1.39492677      -1.30756512       0.00000000
Si      -1.32678793       1.35169534       1.38077444       0.00000000
Si      -1.33706692      -1.32339961      -1.40465142       0.00000000
Si       1.38337939      -1.35770635       1.33940401       0.00000000
Si       2.66711285      -0.09744678      -2.51490762       0.00000000
Si       0.01954800      -2.71893134       2.66830495       0.00000000
Si       2.71264340       2.67857287       0.09977917       0.00000000
Si      -0.02611287       2.71981100      -2.67323848       0.00000000
Si      -2.71192664      -0.00656487       2.68750223       0.00000000
Si       0.04714326      -2.67893939      -2.72852839       0.00000000
