10
Lattice="16.290000149 0.0 0.0 0.0 16.290000149 0.0 0.0 0.0 29.1751946751" Properties=species:S:1:pos:R:3:initial_magmoms:R:1 pbc="T T T"
Si      -0.62933158       0.40405716      -2.14767361       0.00000000
Si       1.48691863      -1.79986583       0.11661325       0.00000000
Si       0.97249672       1.99656758       0.87697718       0.00000000
Si      -2.12494907      -0.58479472       1.00222629       0.00000000
H        0.08570169      -0.82741798       2.57482763       0.00000000
H        0.73529803      -1.25232634       2.61508940       0.00000000
H        2.28361367       1.53714070       1.48539669       0.00000000
H        2.85420351       1.41799564      -0.84812291       0.00000000
Si      -2.34898544       1.55121526       1.91050845       0.00000000
Si      -0.17350479      -3.32428404       0.85007765       0.00000000
