10
Lattice="16.290000149 0.0 0.0 0.0 16.290000149 0.0 0.0 0.0 29.1751946751" Properties=species:S:1:pos:R:3:initial_magmoms:R:1 pbc="T T T"
Si      -1.20252781       1.27623485       1.55164480       0.00000000
Si       1.49651670       1.21889926      -1.36086237       0.00000000
Si      -1.92257840      -0.79837291      -1.11928505       0.00000000
Si       1.34622190      -1.48269952       1.29538448       0.00000000
H       -0.81575434      -2.47637324      -1.91136912       0.00000000
Si      -2.61092864       2.61655032       0.28414014       0.00000000
Si      -3.65208771       0.76080817      -0.66303839       0.00000000
Si      -2.65645919      -0.16123842       2.76477274       0.00000000
Si       2.83868565       2.59020776       0.00743676       0.00000000
Si       2.70548069      -0.26265996      -2.71899686       0.00000000
