10
Lattice="16.290000149 0.0 0.0 0.0 16.290000149 0.0 0.0 0.0 29.1751946751" Properties=species:S:1:pos:R:3:initial_magmoms:R:1 pbc="T T T"
H        0.64959634      -0.42490836       0.04026177       0.00000000
H       -1.14468202      -1.63341460       1.12391602       0.00000000
Si      -1.86828383      -1.70807168      -0.19949998       0.00000000
Si       0.85439422       1.74638576       1.75033663       0.00000000
Si      -0.08570169       0.82741798      -2.57482763       0.00000000
Si      -2.21065076       0.24262326      -1.57260134       0.00000000
Si       2.63322965       0.19820043       1.12254479       0.00000000
Si       1.40121694      -0.97244785      -2.45821438       0.00000000
Si      -0.25920648      -2.49686606      -1.72474998       0.00000000
Si      -0.37318761       3.07100712       0.23882814       0.00000000
