10
Lattice="16.290000149 0.0 0.0 0.0 16.290000149 0.0 0.0 0.0 29.1751946751" Properties=species:S:1:pos:R:3:initial_magmoms:R:1 pbc="T T T"
Si      -1.34615674      -1.02019384       1.63518214       0.00000000
Si       1.23245254      -1.42992807      -1.41616395       0.00000000
Si      -1.35293338       1.30952053      -1.42730887       0.00000000
Si       1.42708546       1.27161370       1.40443552       0.00000000
Si       0.09047466      -2.64473316       2.56616260       0.00000000
Si      -0.06273279       2.53733042       2.68858171       0.00000000
Si       2.72197757       2.62995536      -0.04236238       0.00000000
Si      -1.45415944       0.71270380       3.43879267       0.00000000
Si      -2.74494648       2.66312180      -0.11404584       0.00000000
Si       2.61488711      -0.09303219      -2.79830962       0.00000000
