10
Lattice="16.290000149 0.0 0.0 0.0 16.290000149 0.0 0.0 0.0 29.1751946751" Properties=species:S:1:pos:R:3:initial_magmoms:R:1 pbc="T T T"
Si       1.35747829      -1.39933708      -1.28332929       0.00000000
Si       1.39204567       1.34034121       1.33549454       0.00000000
Si      -1.32174618      -1.38275711       1.36668282       0.00000000
Si      -1.29374692       1.34745994      -1.44125462       0.00000000
Si      -2.63899908       2.67204872      -0.02404036       0.00000000
Si       2.70542693      -0.06664239      -2.62536199       0.00000000
Si       0.03611493       2.69579954       2.69246202       0.00000000
Si      -2.63647511      -2.76587913       0.00259659       0.00000000
Si      -2.70124040      -0.03655476       2.71040476       0.00000000
Si       0.04777857      -2.70758709      -2.72248037       0.00000000
