10
Lattice="16.290000149 0.0 0.0 0.0 16.290000149 0.0 0.0 0.0 29.1751946751" Properties=species:S:1:pos:R:3:initial_magmoms:R:1 pbc="T T T"
Si       1.35956015       1.44467866      -1.23620931       0.00000000
Si       1.38603140      -1.33656193       1.36941070       0.00000000
Si      -1.36059294       1.43350372       1.30892177       0.00000000
Si      -1.22384442      -1.47971845      -1.39992795       0.00000000
Si      -2.68593106      -2.65952171       0.01253366       0.00000000
Si      -0.00133415       2.65354328      -2.70545956       0.00000000
Si      -2.67027637       0.09247833       2.73224239       0.00000000
Si       0.03946904      -2.65875608       2.75508657       0.00000000
Si       2.80344061       0.26516862      -2.59990371       0.00000000
Si       0.03048511       2.75670786       2.70896059       0.00000000
