10
Lattice="16.290000149 0.0 0.0 0.0 16.290000149 0.0 0.0 0.0 29.1751946751" Properties=species:S:1:pos:R:3:initial_magmoms:R:1 pbc="T T T"
Si      -1.31288795      -1.33550667       1.36644942       0.00000000
Si      -1.46993984       1.29160609      -1.27262199       0.00000000
Si       1.23101386       1.36119697       1.44656450       0.00000000
Si       1.37731109      -1.39569822      -1.30033843       0.00000000
Si       2.61028165      -0.08485819       2.61080065       0.00000000
Si      -0.08750527       2.62850197      -2.65476766       0.00000000
Si       2.63913124       2.65516870       0.05502442       0.00000000
Si      -2.61191772       0.07680100       2.70970456       0.00000000
Si       2.71466797      -0.04610428      -2.67049309       0.00000000
Si      -2.58774336      -2.79932608       0.06698625       0.00000000
