10
Lattice="16.290000149 0.0 0.0 0.0 16.290000149 0.0 0.0 0.0 29.1751946751" Properties=species:S:1:pos:R:3:initial_magmoms:R:1 pbc="T T T"
Si      -1.53831358      -1.30798927      -1.19489927       0.00000000
Si      -1.39145923       1.16330149       1.49960501       0.00000000
Si       1.39126375      -1.31608540       1.42634609       0.00000000
Si       0.77377501       1.50526606      -1.70785755       0.00000000
H        1.18444591      -2.07573698      -2.24867813       0.00000000
Si      -1.30036555       2.24298967      -2.53018958       0.00000000
Si      -0.17330931      -2.65336409      -2.52184548       0.00000000
Si      -2.57455307       0.24619077      -2.66249909       0.00000000
Si       0.06853203       2.61352527       2.74261418       0.00000000
H       -0.61455655       3.80058735       0.06042183       0.00000000
