10
Lattice="16.290000149 0.0 0.0 0.0 16.290000149 0.0 0.0 0.0 29.1751946751" Properties=species:S:1:pos:R:3:initial_magmoms:R:1 pbc="T T T"
Si       1.31444011       1.35638686      -1.38471309       0.00000000
Si      -1.38093589       1.49001373       1.20356431       0.00000000
Si       1.59643630      -1.30269502       1.21476758       0.00000000
Si      -1.50773725      -1.34162812      -1.29852956       0.00000000
Si      -2.22705479      -0.00215028       2.82824337       0.00000000
Si      -1.70111585      -2.37008099       2.11447223       0.00000000
Si       2.37084662      -0.11016927      -2.86258258       0.00000000
Si       3.47029131       0.15912072       1.37537703       0.00000000
Si       3.12792438       2.10981566       0.00227567       0.00000000
H        2.08200863       1.00851391       2.99772208       0.00000000
