10
Lattice="16.290000149 0.0 0.0 0.0 16.290000149 0.0 0.0 0.0 29.1751946751" Properties=species:S:1:pos:R:3:initial_magmoms:R:1 pbc="T T T"
Si      -1.33959187      -1.28805031      -1.43028474       0.00000000
Si       1.35060391       1.38570886      -1.35460429       0.00000000
Si      -1.12619287       1.11563695       1.75223302       0.00000000
Si       1.34262181      -1.41384169       1.37234281       0.00000000
Si       0.73658494       1.95792770       3.00384887       0.00000000
Si       2.41390109       0.27808659       2.75489693       0.00000000
Si      -2.78661630      -0.40878126       2.48569741       0.00000000
Si       0.05242122      -2.64165158      -2.74354778       0.00000000
Si       2.73621503       0.03497463      -2.70909188       0.00000000
Si      -0.04880484      -3.23846832       2.12255376       0.00000000
