10
Lattice="16.290000149 0.0 0.0 0.0 16.290000149 0.0 0.0 0.0 29.1751946751" Properties=species:S:1:pos:R:3:initial_magmoms:R:1 pbc="T T T"
Si       2.07414056      -0.73772361       0.82233204       0.00000000
Si       0.76165525       0.57072830      -2.16331151       0.00000000
Si      -1.27418752      -1.99679890      -0.13230951       0.00000000
Si      -0.60398434       1.51079652       1.78470501       0.00000000
H        0.68580901       1.55759769       2.59061141       0.00000000
H        0.15073137       1.87391691      -2.61564373       0.00000000
Si      -0.07275114       3.51679600       0.03185931       0.00000000
Si       1.30036555      -2.24298967       2.53018958       0.00000000
Si       3.12785922      -1.41205305      -1.24936936       0.00000000
Si       3.00003159       1.34235791       1.62482494       0.00000000
