10
Lattice="16.28999089631971 0.0 0.0 0.0 16.28999089631971 0.0 0.0 0.0 34.56409401068381" Properties=species:S:1:pos:R:3:initial_magmoms:R:1 pbc="T T T"
Si      -1.35031068      -1.34167146       1.36952004       0.00000000
Si      -1.48902003       1.24156972      -1.32947060       0.00000000
Si       1.35718506       1.38208563       1.36554516       0.00000000
Si       1.37990961      -1.40507214      -1.42651972       0.00000000
Si       0.50272569       1.82125100      -2.62336055       0.00000000
Si       2.47471164       0.25228616      -2.90051121       0.00000000
Si      -2.70984150      -2.70066471      -0.01192808       0.00000000
Si      -0.00066789      -2.69377404       2.72730210       0.00000000
Si       2.72890080      -2.70662685      -0.00793592       0.00000000
Si      -2.71415835       0.02003375       2.72512456       0.00000000
