10
Lattice="16.28999089631971 0.0 0.0 0.0 16.28999089631971 0.0 0.0 0.0 34.56409401068381" Properties=species:S:1:pos:R:3:initial_magmoms:R:1 pbc="T T T"
Si       1.33377633       0.86856651      -1.75074147       0.00000000
Si      -0.82341063       1.72250460       1.40516946       0.00000000
Si      -1.60479306      -1.02185541      -1.43254424       0.00000000
Si       1.75352076      -1.17634814       1.10712311       0.00000000
Si       0.18272493       3.49213617       0.22290397       0.00000000
Si       2.42789418      -2.43656209      -0.70331058       0.00000000
Si      -2.59820613       0.81964764      -2.44893656       0.00000000
Si      -0.22856499       1.49516136      -3.34998843       0.00000000
Si       2.13641721      -1.09603518      -2.78569471       0.00000000
Si       0.64353645      -2.58794131       2.55898869       0.00000000
