10
Lattice="16.28999089631971 0.0 0.0 0.0 16.28999089631971 0.0 0.0 0.0 34.56409401068381" Properties=species:S:1:pos:R:3:initial_magmoms:R:1 pbc="T T T"
Si      -0.99341307       1.84150305      -1.01639232       0.00000000
Si      -1.81468971      -1.16819825       0.95680379       0.00000000
Si       1.60479306       1.02185541       1.43254424       0.00000000
Si       1.22842890      -1.33664826      -2.00910822       0.00000000
Si       1.37622807       2.51701677      -1.91744419       0.00000000
Si       2.14923744      -2.74019696       0.40163500       0.00000000
Si       2.93856939       1.89042192      -0.31819723       0.00000000
Si      -2.49684975       0.73583559      -2.43445419       0.00000000
Si      -0.99808830      -2.01877802       3.00372514       0.00000000
Si      -2.06483895      -3.16240118      -0.35683991       0.00000000
