10
Lattice="16.28999089631971 0.0 0.0 0.0 16.28999089631971 0.0 0.0 0.0 34.56409401068381" Properties=species:S:1:pos:R:3:initial_magmoms:R:1 pbc="T T T"
Si      -1.35702216       1.35516510       1.35843878       0.00000000
Si       1.35689184       1.35720135      -1.35681427       0.00000000
Si       1.35547461      -1.35713619       1.36072001       0.00000000
Si      -1.35856971      -1.35799956      -1.35691796       0.00000000
Si       0.01560582       2.71003698       2.71037951       0.00000000
Si      -2.71519928      -0.00614133       2.71075972       0.00000000
Si       2.71435383      -2.71427238       0.00089867       0.00000000
Si      -0.00087966       2.71477737      -2.71449264       0.00000000
Si       2.71464705      -0.00073305      -2.71470002       0.00000000
Si      -2.71535241      -0.00087966      -2.71438895       0.00000000
