10
Lattice="16.28999089631971 0.0 0.0 0.0 16.28999089631971 0.0 0.0 0.0 34.56409401068381" Properties=species:S:1:pos:R:3:initial_magmoms:R:1 pbc="T T T"
Si       1.35348723       1.35451350      -1.37420002       0.00000000
Si      -1.36296801      -1.35835794      -1.37444197       0.00000000
Si      -1.25040411       1.51268940       1.38750720       0.00000000
Si       1.39973454      -1.42184007       1.36251735       0.00000000
Si      -2.69558775       0.08325819       2.62998338       0.00000000
Si      -2.70283680       2.70881523      -0.02478247       0.00000000
Si      -2.71360449      -2.71818198      -0.01285785       0.00000000
Si       2.70431919       2.72746728       0.00027651       0.00000000
Si       2.72577312      -2.70837540      -0.03511714       0.00000000
Si      -0.00285075       2.71458189      -2.73450526       0.00000000
