10
Lattice="16.28999089631971 0.0 0.0 0.0 16.28999089631971 0.0 0.0 0.0 34.56409401068381" Properties=species:S:1:pos:R:3:initial_magmoms:R:1 pbc="T T T"
Si      -1.07777898       0.54076284      -2.01463847       0.00000000
Si      -1.00613556      -1.76963157       1.18226550       0.00000000
Si      -0.57972852       1.87115085       1.35131857       0.00000000
Si       2.09445417      -0.67171815      -1.03111663       0.00000000
Si       2.14475769       1.38991167      -2.19478663       0.00000000
Si       1.15105140      -2.62356966      -1.97364544       0.00000000
Si      -0.18272493      -3.49213617      -0.22290397       0.00000000
Si       1.34100909       3.23711622       1.19325688       0.00000000
Si      -2.94254415       1.78579125      -1.45480353       0.00000000
Si       0.11898216      -2.04315696       3.27322153       0.00000000
