10
Lattice="16.28999089631971 0.0 0.0 0.0 16.28999089631971 0.0 0.0 0.0 34.56409401068381" Properties=species:S:1:pos:R:3:initial_magmoms:R:1 pbc="T T T"
Si       1.92073761       1.36596537      -0.15806169       0.00000000
Si       0.57972852      -1.87115085      -1.35131857       0.00000000
Si      -1.13018391      -0.74823228       1.97817333       0.00000000
Si      -1.84639005       1.22552928      -0.96776061       0.00000000
Si      -0.49805046      -1.33038801      -3.36595705       0.00000000
Si      -2.36281563      -0.08535960      -2.80612210       0.00000000
Si      -0.42640704      -3.64078242      -0.16905308       0.00000000
Si       1.38109878       3.26557485       1.09298639       0.00000000
Si       2.08468017       1.81012851      -2.49252190       0.00000000
Si      -1.49452605       1.23372315       3.20464633       0.00000000
