10
Lattice="16.28999089631971 0.0 0.0 0.0 16.28999089631971 0.0 0.0 0.0 34.56409401068381" Properties=species:S:1:pos:R:3:initial_magmoms:R:1 pbc="T T T"
Si      -1.17388998       1.37565792       1.55338038       0.00000000
Si      -1.12511772       0.27352539      -2.09095604       0.00000000
Si      -0.59613255      -2.29068351       0.45977184       0.00000000
Si       2.24181351       0.85551822       0.32531743       0.00000000
Si       2.47813254      -0.72723447       2.03807294       0.00000000
Si      -1.82889459       3.16607553       0.05627038       0.00000000
Si      -0.30170709      -1.44897921      -3.49612550       0.00000000
Si       1.45181367      -2.62532735      -2.38900238       0.00000000
Si      -0.11898216       2.04315696      -3.27322153       0.00000000
Si      -2.86943463      -2.79913676      -0.17980252       0.00000000
