10
Lattice="16.28999089631971 0.0 0.0 0.0 16.28999089631971 0.0 0.0 0.0 34.56409401068381" Properties=species:S:1:pos:R:3:initial_magmoms:R:1 pbc="T T T"
Si      -1.35733167       1.35420399       1.36192976       0.00000000
Si       1.35975888      -1.36164852       1.36148042       0.00000000
Si       1.36285398       1.34776944      -1.37688565       0.00000000
Si      -1.36427121      -1.37145510      -1.37318038       0.00000000
Si       2.55106287      -0.22776678      -2.79303959       0.00000000
Si      -2.71516181       2.70977634       0.00321446       0.00000000
Si      -2.71318095      -2.71551042       0.00394031       0.00000000
Si       2.72238480       2.70676269       0.00456246       0.00000000
Si       0.00096111       2.71109583       2.71884772       0.00000000
Si      -2.71441084      -0.00343719       2.71874403       0.00000000
