10
Lattice="16.28999089631971 0.0 0.0 0.0 16.28999089631971 0.0 0.0 0.0 34.56409401068381" Properties=species:S:1:pos:R:3:initial_magmoms:R:1 pbc="T T T"
Si      -1.33789770      -1.35962856       1.34955580       0.00000000
Si      -1.35355239       1.36062225      -1.36089283       0.00000000
Si       1.36208835      -1.35386190      -1.36016699       0.00000000
Si       1.37402892       1.37277459       1.39673582       0.00000000
Si      -2.54842389       0.07666074       2.73785798       0.00000000
Si       0.11453499      -2.55575439       2.76184548       0.00000000
Si      -2.71052568      -2.71450044      -0.00238492       0.00000000
Si      -2.71103067       2.71495656      -0.00186646       0.00000000
Si      -2.71112841       0.00218286      -2.71777623       0.00000000
Si       0.00338832      -2.71246419      -2.71763797       0.00000000
