10
Lattice="16.28999089631971 0.0 0.0 0.0 16.28999089631971 0.0 0.0 0.0 34.56409401068381" Properties=species:S:1:pos:R:3:initial_magmoms:R:1 pbc="T T T"
Si      -0.16394256      -0.44416314       2.33446021       0.00000000
Si      -1.48897116       1.78771347      -0.61506840       0.00000000
Si       2.36685555       0.34650459      -0.45852753       0.00000000
Si       0.63980604      -2.29136769      -1.05358330       0.00000000
Si       0.16967664       3.41343918      -0.24357331       0.00000000
Si       3.01570254      -1.88967258      -0.79079235       0.00000000
Si      -2.08468017      -1.81012851       2.49252190       0.00000000
Si      -2.45770488       0.98393229      -2.70668115       0.00000000
Si       3.15273402       1.56530610       1.43506742       0.00000000
Si      -0.06437808      -2.12449293      -3.25645794       0.00000000
