10
Lattice="16.28999089631971 0.0 0.0 0.0 16.28999089631971 0.0 0.0 0.0 34.56409401068381" Properties=species:S:1:pos:R:3:initial_magmoms:R:1 pbc="T T T"
Si      -2.01212614      -1.12237353      -0.41985028       0.00000000
Si       0.86345145       0.55210557      -2.10581860       0.00000000
Si       1.76832837      -1.37299518       0.91677854       0.00000000
Si      -0.59549724       2.00954906       1.38152761       0.00000000
Si      -2.26863988      -2.08429803       1.69720166       0.00000000
Si       3.13675353       1.06055882      -1.46624425       0.00000000
Si      -0.84225816       1.90644965      -3.01471653       0.00000000
Si       3.61449036       0.07284562       0.69235375       0.00000000
Si      -3.70433690       0.49254933      -0.40135848       0.00000000
Si      -0.85731012       1.15754948       3.58540460       0.00000000
