10
Lattice="16.28999089631971 0.0 0.0 0.0 16.28999089631971 0.0 0.0 0.0 34.56409401068381" Properties=species:S:1:pos:R:3:initial_magmoms:R:1 pbc="T T T"
Si      -0.00472410       0.96115887      -2.15690436       0.00000000
Si      -0.33076845       1.98296541       1.25066788       0.00000000
Si      -1.74979035      -1.62202788      -0.07362156       0.00000000
Si       1.96359660      -1.35451350      -0.24326223       0.00000000
Si       1.01462265      -2.81121417      -1.88626736       0.00000000
Si       0.35961804      -1.02079656      -3.38337736       0.00000000
Si       3.36357549       0.14548599      -1.36860063       0.00000000
Si       2.09390031       1.98337266      -2.23674747       0.00000000
Si      -1.95082524       3.10987503      -0.04223735       0.00000000
Si      -0.57194190      -3.68992935      -0.27385147       0.00000000
