10
Lattice="16.28999089631971 0.0 0.0 0.0 16.28999089631971 0.0 0.0 0.0 34.56409401068381" Properties=species:S:1:pos:R:3:initial_magmoms:R:1 pbc="T T T"
Si       0.90885168       1.24579404      -1.78907307       0.00000000
Si      -1.33486776       1.66032797       1.34126042       0.00000000
Si       1.75093065      -1.25669205       1.30486441       0.00000000
Si      -1.54334718      -1.22771214      -1.75288444       0.00000000
Si       1.17791361       2.92279645       1.99721816       0.00000000
Si       1.79178597       3.25300616      -0.52744837       0.00000000
Si       2.56956831      -2.73375522      -0.41238444       0.00000000
Si      -0.41405922       0.25677927       3.75200363       0.00000000
Si      -2.84131809      -2.75672412      -0.45614260       0.00000000
Si       2.31117633      -0.00239463      -3.33598996       0.00000000
