10
Lattice="16.28999089631971 0.0 0.0 0.0 16.28999089631971 0.0 0.0 0.0 34.56409401068381" Properties=species:S:1:pos:R:3:initial_magmoms:R:1 pbc="T T T"
Si      -1.99174572      -0.57968128       1.29388995       0.00000000
Si      -1.36529748      -0.99641532      -1.79347831       0.00000000
Si       0.77092425       2.11633164       1.15576139       0.00000000
Si       1.97198595      -1.56896483      -0.27715065       0.00000000
Si      -0.50272569      -1.82125100       2.62336055       0.00000000
Si      -1.47444048       0.98530065      -3.05683121       0.00000000
Si       0.87718392      -3.22632314       1.19684084       0.00000000
Si       2.21601015       0.91183275       2.62117610       0.00000000
Si      -3.35013624      -1.54028303      -0.46994928       0.00000000
Si       3.58678107      -0.46017784       1.23324722       0.00000000
