10
Lattice="16.28999089631971 0.0 0.0 0.0 16.28999089631971 0.0 0.0 0.0 34.56409401068381" Properties=species:S:1:pos:R:3:initial_magmoms:R:1 pbc="T T T"
Si       1.35485559      -1.35190342       1.35861160       0.00000000
Si      -1.35407367       1.35384724       1.36172237       0.00000000
Si      -1.35860229      -1.35644165      -1.35677970       0.00000000
Si       1.35646830       1.35847360      -1.35695253       0.00000000
Si       0.01404198       2.72416204       2.70039048       0.00000000
Si       2.71309950      -2.71536937       0.00072585       0.00000000
Si       2.71474479       0.00084545      -2.71393961       0.00000000
Si      -0.00074934      -2.71468519      -2.71407787       0.00000000
Si      -2.71554300       0.00078355      -2.71428526       0.00000000
Si      -0.00061902       2.71603333      -2.71435438       0.00000000
