10
Lattice="16.28999089631971 0.0 0.0 0.0 16.28999089631971 0.0 0.0 0.0 34.56409401068381" Properties=species:S:1:pos:R:3:initial_magmoms:R:1 pbc="T T T"
Si      -1.35485559       1.35190342      -1.35861160       0.00000000
Si       1.34249148       1.35547907       1.37433827       0.00000000
Si       1.35824391      -1.36346595      -1.35788576       0.00000000
Si      -1.36210464      -1.35447387       1.37800207       0.00000000
Si      -2.70892926       2.70575066       0.00311077       0.00000000
Si       0.05212800      -2.66795286       2.74840004       0.00000000
Si       0.00161271       2.71037702      -2.71556413       0.00000000
Si       2.71862181       2.70954623      -0.00038021       0.00000000
Si      -2.71345788      -0.00453823      -2.71539131       0.00000000
Si       2.71702539      -0.00449953      -2.71566782       0.00000000
