10
Lattice="16.28999089631971 0.0 0.0 0.0 16.28999089631971 0.0 0.0 0.0 34.56409401068381" Properties=species:S:1:pos:R:3:initial_magmoms:R:1 pbc="T T T"
Si      -1.32603858       1.28653533       1.39763449       0.00000000
Si       1.33954299       1.34969166      -1.34461314       0.00000000
Si       1.38816864      -1.21977891       1.43810906       0.00000000
Si      -1.36811565      -1.37031480      -1.33866811       0.00000000
Si      -0.54068139      -2.17513854       2.84476478       0.00000000
Si      -2.36341836      -0.45142848       2.73823819       0.00000000
Si       2.69000028       2.70835911       0.02647611       0.00000000
Si       2.70050733      -0.00759114      -2.69921530       0.00000000
Si       2.68330509      -2.72058638       0.03255939       0.00000000
Si      -0.01211976       2.70718623      -2.70042505       0.00000000
