10
Lattice="16.28999089631971 0.0 0.0 0.0 16.28999089631971 0.0 0.0 0.0 34.56409401068381" Properties=species:S:1:pos:R:3:initial_magmoms:R:1 pbc="T T T"
Si      -0.67437342       1.26021395       1.81043369       0.00000000
Si      -1.88344980      -1.32549028      -0.32759867       0.00000000
Si       1.93836339      -1.20483025       0.57618377       0.00000000
Si      -0.29147697       1.34052691      -2.08238414       0.00000000
Si      -0.57054096      -3.26657410      -0.45856209       0.00000000
Si       2.36481930      -1.77224353      -1.65202636       0.00000000
Si       2.99094174       0.69185585       1.47315707       0.00000000
Si      -2.42789418       2.43656209       0.70331058       0.00000000
Si      -1.09411785       3.30512860      -1.04743089       0.00000000
Si       0.97412571      -3.22707085       1.38671223       0.00000000
