10
Lattice="16.28999089631971 0.0 0.0 0.0 16.28999089631971 0.0 0.0 0.0 34.56409401068381" Properties=species:S:1:pos:R:3:initial_magmoms:R:1 pbc="T T T"
Si       2.03774868      -0.23474053       1.06312300       0.00000000
Si      -1.30377015      -1.65958677       1.07352680       0.00000000
Si      -0.66885111       2.07184039       1.00208277       0.00000000
Si       0.32969331       0.63957472      -2.30580656       0.00000000
Si      -2.80515429      -1.23784566      -1.97312697       0.00000000
Si       0.91686636       2.88505348      -2.03807294       0.00000000
Si      -3.26537937      -0.47932185       1.58237967       0.00000000
Si       2.83297761       1.92811372       1.36925735       0.00000000
Si       1.57749102      -1.20121222       3.17533596       0.00000000
Si      -2.20809321      -2.98282347      -0.56605648       0.00000000
