10
Lattice="16.28999089631971 0.0 0.0 0.0 16.28999089631971 0.0 0.0 0.0 34.56409401068381" Properties=species:S:1:pos:R:3:initial_magmoms:R:1 pbc="T T T"
Si       1.35166275      -1.35749457       1.35581191       0.00000000
Si       1.35466011       1.35690813      -1.35715991       0.00000000
Si      -1.35990549      -1.35749457      -1.35688340       0.00000000
Si      -1.36016613       1.35570267       1.36134217       0.00000000
Si       0.01211976      -2.70718623       2.70042505       0.00000000
Si       2.71155195       2.71391400       0.00079497       0.00000000
Si       2.71181259      -0.00029322      -2.71390505       0.00000000
Si       2.71262709      -2.71477737       0.00120974       0.00000000
Si      -0.00265527       2.71394658      -2.71480372       0.00000000
Si       2.70212004       0.00117288       2.72690116       0.00000000
