10
Lattice="16.28999089631971 0.0 0.0 0.0 16.28999089631971 0.0 0.0 0.0 34.56409401068381" Properties=species:S:1:pos:R:3:initial_magmoms:R:1 pbc="T T T"
Si       1.07577531       0.49352184       2.06458362       0.00000000
Si       0.10137267       2.21920299      -0.91121372       0.00000000
Si       1.64007720      -1.45873692      -1.03955027       0.00000000
Si      -2.24935578      -0.75960270       0.79494004       0.00000000
Si      -1.86175152      -1.31501025      -1.40672485       0.00000000
Si       2.43190152       2.40264468      -1.01946852       0.00000000
Si      -0.31421781       2.23674732       2.86968551       0.00000000
Si       2.91993363       1.91878281       1.37928094       0.00000000
Si      -2.09807055       0.26774244      -3.11948036       0.00000000
Si      -0.23118768       3.67305291       0.95949979       0.00000000
