10
Lattice="16.28999089631971 0.0 0.0 0.0 16.28999089631971 0.0 0.0 0.0 34.56409401068381" Properties=species:S:1:pos:R:3:initial_magmoms:R:1 pbc="T T T"
Si      -1.35488817      -1.33848414       1.38606588       0.00000000
Si       1.35671265       1.37782449       1.37849634       0.00000000
Si      -1.52373402       1.15406505      -1.41081033       0.00000000
Si       1.37683080      -1.50983865      -1.42949569       0.00000000
Si       0.13589118       2.31433659      -2.55310208       0.00000000
Si      -2.69501760      -2.70932022       0.00794975       0.00000000
Si       2.71521720      -2.70795186       0.03722555       0.00000000
Si      -0.00353493      -2.69661402       2.74419358       0.00000000
Si      -2.71194291       2.72960127       0.00534361       0.00000000
Si       2.72679939       2.72363913       0.00933577       0.00000000
