10
Lattice="16.28999089631971 0.0 0.0 0.0 16.28999089631971 0.0 0.0 0.0 34.56409401068381" Properties=species:S:1:pos:R:3:initial_magmoms:R:1 pbc="T T T"
Si      -1.35492075      -1.35557235       1.35691796       0.00000000
Si      -1.35135324       1.35812988      -1.35812770       0.00000000
Si       1.35987291       1.35913986       1.35643406       0.00000000
Si       1.36313091      -1.35562122      -1.35805858       0.00000000
Si       2.71875213      -0.01133784      -2.70696803       0.00000000
Si       0.00262269      -2.71230129       2.71435438       0.00000000
Si      -2.71267596       0.00236205       2.71480372       0.00000000
Si      -2.69148267      -0.01270620      -2.73624384       0.00000000
Si      -2.71150308       2.71679733      -0.00048390       0.00000000
Si      -2.71466334      -2.71432125       0.00024195       0.00000000
