10
Lattice="16.28999089631971 0.0 0.0 0.0 16.28999089631971 0.0 0.0 0.0 34.56409401068381" Properties=species:S:1:pos:R:3:initial_magmoms:R:1 pbc="T T T"
Si      -1.35487188       1.35744570      -1.35826596       0.00000000
Si       1.35850455      -1.35847197      -1.35750555       0.00000000
Si       1.35591444       1.36467846       1.35615755       0.00000000
Si      -1.36238157      -1.34372952       1.37751817       0.00000000
Si       2.65751802      -0.06017526       2.69327027       0.00000000
Si       0.00638568      -2.65307085       2.75386117       0.00000000
Si      -2.71329498       2.71147050       0.00117518       0.00000000
Si      -2.71314837      -0.00021177      -2.71528761       0.00000000
Si       0.00167787       2.71399545      -2.71521849       0.00000000
Si      -2.71321353      -2.71668330       0.00304164       0.00000000
