10
Lattice="16.28999089631971 0.0 0.0 0.0 16.28999089631971 0.0 0.0 0.0 34.56409401068381" Properties=species:S:1:pos:R:3:initial_magmoms:R:1 pbc="T T T"
Si       1.50763950      -1.10364750       1.42798178       0.00000000
Si      -1.47618351      -1.23839838      -1.37741448       0.00000000
Si       1.15584066       1.41788160      -1.55320756       0.00000000
Si      -0.81863766       1.47706317       1.71724884       0.00000000
Si       3.22638111       0.65932146       1.24133557       0.00000000
Si       2.49108309      -2.74641255      -0.09906075       0.00000000
Si       2.66502771       2.63225223      -0.11599716       0.00000000
Si      -2.56956831       2.73375522       0.41238444       0.00000000
Si      -2.84166018      -2.53757475       0.06570638       0.00000000
Si       2.45974113       0.01615968      -2.94579569       0.00000000
