10
Lattice="16.28999089631971 0.0 0.0 0.0 16.28999089631971 0.0 0.0 0.0 34.56409401068381" Properties=species:S:1:pos:R:3:initial_magmoms:R:1 pbc="T T T"
Si      -1.35638033      -1.35584382       1.35722904       0.00000000
Si       1.35780408       1.35608510       1.35646863       0.00000000
Si      -1.35724533       1.35758052      -1.35709078       0.00000000
Si       1.35747828      -1.35784749      -1.35736729       0.00000000
Si      -2.71247683      -0.00036741       2.71435438       0.00000000
Si      -0.00004887       2.71443164      -2.71317920       0.00000000
Si      -0.00081450      -2.71473933      -2.71428526       0.00000000
Si       2.71482624       2.71426874       0.00034564       0.00000000
Si      -2.71454021      -0.00024690      -2.71463090       0.00000000
Si      -2.71486427       2.71438277       0.00020738       0.00000000
