10
Lattice="16.28999089631971 0.0 0.0 0.0 16.28999089631971 0.0 0.0 0.0 34.56409401068381" Properties=species:S:1:pos:R:3:initial_magmoms:R:1 pbc="T T T"
Si      -1.34899119       1.30155471      -1.41858380       0.00000000
Si      -1.37008674      -1.34581464       1.36916057       0.00000000
Si       1.34601012       1.36674729       1.37451801       0.00000000
Si       1.34421822      -1.43399241      -1.47308103       0.00000000
Si      -2.59090821      -0.40930254      -2.56243785       0.00000000
Si       2.70694188      -2.70521514       0.00409585       0.00000000
Si       2.70801702       2.71703075       0.00994755       0.00000000
Si      -2.72890080       2.70662685       0.00793592       0.00000000
Si       2.70291825       0.01172880       2.73509976       0.00000000
Si      -0.01314603      -2.70560610       2.73454674       0.00000000
