10
Lattice="16.28999089631971 0.0 0.0 0.0 16.28999089631971 0.0 0.0 0.0 34.56409401068381" Properties=species:S:1:pos:R:3:initial_magmoms:R:1 pbc="T T T"
Si      -0.90432306      -1.32323670      -1.63958328       0.00000000
Si      -1.96160922       1.18026493       0.50885288       0.00000000
Si       0.89006931      -0.85877622       2.00267929       0.00000000
Si       1.30377015       1.65958677      -1.07352680       0.00000000
Si      -1.50138414       0.42174111      -3.04665377       0.00000000
Si      -1.51102782       1.43016982       2.80491236       0.00000000
Si       2.88126117       0.45837455       2.10180917       0.00000000
Si       3.34151883       1.42484625      -0.01040380       0.00000000
Si      -2.92780170      -2.07764289      -0.59982562       0.00000000
Si      -2.43934605       2.16797813      -1.64974513       0.00000000
