10
Lattice="16.28999089631971 0.0 0.0 0.0 16.28999089631971 0.0 0.0 0.0 34.56409401068381" Properties=species:S:1:pos:R:3:initial_magmoms:R:1 pbc="T T T"
Si       0.92528829       1.76822297       1.23352408       0.00000000
Si       1.33019253      -1.37948462      -1.37036340       0.00000000
Si      -1.19118996      -1.46510486       1.43828188       0.00000000
Si      -1.41001353       1.34395644      -1.37299027       0.00000000
Si      -1.55025414       0.21052430       3.18173032       0.00000000
Si       2.67165774       2.67811721      -0.05125858       0.00000000
Si      -2.70037701      -2.67947549       0.00107149       0.00000000
Si       2.58763392      -2.78452970       0.16411041       0.00000000
Si       2.68176838      -0.01643336      -2.74860742       0.00000000
Si      -0.03388320       2.69802359      -2.74770875       0.00000000
