10
Lattice="16.28999089631971 0.0 0.0 0.0 16.28999089631971 0.0 0.0 0.0 34.56409401068381" Properties=species:S:1:pos:R:3:initial_magmoms:R:1 pbc="T T T"
Si       0.66373605       1.76088384      -1.47982795       0.00000000
Si      -0.86631849       0.82727136       2.08743050       0.00000000
Si       1.67185899      -1.78008975      -0.17900754       0.00000000
Si      -1.95857928      -0.70354881      -1.37997222       0.00000000
Si      -2.18838231      -1.40390478       2.06638095       0.00000000
Si       2.07842481       0.50186232      -2.81842693       0.00000000
Si      -0.66344283      -2.20435628      -2.78552189       0.00000000
Si       2.13076458       3.00563532      -0.13856753       0.00000000
Si       3.16721583       1.42050429       1.30614328       0.00000000
Si      -1.53634248       3.02624217       1.69409089       0.00000000
