10
Lattice="16.28999089631971 0.0 0.0 0.0 16.28999089631971 0.0 0.0 0.0 34.56409401068381" Properties=species:S:1:pos:R:3:initial_magmoms:R:1 pbc="T T T"
Si      -0.09290187       1.92096567       1.36331232       0.00000000
Si       2.02935023      -0.33142005      -1.19484683       0.00000000
Si      -1.98309573      -0.07314210      -1.32197364       0.00000000
Si      -0.83272851      -1.74532037       1.41851121       0.00000000
Si       1.03080092      -1.44189632      -3.05263336       0.00000000
Si      -2.04900507       2.83869540       0.51258580       0.00000000
Si       0.08870542       0.89710659       3.45347338       0.00000000
Si      -3.51385074       1.07111637       0.06553356       0.00000000
Si       0.85948225      -3.36024323       1.40001941       0.00000000
Si      -1.67998770      -0.61429590       3.31818944       0.00000000
