10
Lattice="16.28999089631971 0.0 0.0 0.0 16.28999089631971 0.0 0.0 0.0 34.56409401068381" Properties=species:S:1:pos:R:3:initial_magmoms:R:1 pbc="T T T"
Si       1.69221076      -1.61492285      -0.01849180       0.00000000
Si      -0.84725919       1.13102447       1.89967823       0.00000000
Si      -1.94608485      -1.15918809      -0.70427837       0.00000000
Si       0.83272851       1.74532037      -1.41851121       0.00000000
Si      -1.15036722       1.67217827      -2.74048485       0.00000000
Si       0.92143393       2.64242696       2.03496217       0.00000000
Si      -1.77950331      -0.64436235      -3.00127109       0.00000000
Si      -2.87280666       1.98773186       0.88058992       0.00000000
Si       1.43569701      -2.57684735       2.09856014       0.00000000
Si      -3.66803559      -0.17512239       0.57445556       0.00000000
