10
Lattice="16.28999089631971 0.0 0.0 0.0 16.28999089631971 0.0 0.0 0.0 34.56409401068381" Properties=species:S:1:pos:R:3:initial_magmoms:R:1 pbc="T T T"
Si      -0.79522893      -2.16285425      -0.30613435       0.00000000
Si       0.19168443       0.82870488      -2.23356757       0.00000000
Si       2.02554747      -0.85670739       1.01908832       0.00000000
Si      -1.64007720       1.45873692       1.03955027       0.00000000
Si      -3.50182872       0.14372667      -0.36717458       0.00000000
Si       1.65653010       2.59628391      -1.78651533       0.00000000
Si       2.87280666      -1.98773186      -0.88058992       0.00000000
Si       0.92672181      -3.14691996      -1.58486829       0.00000000
Si      -2.83297761      -1.92811372      -1.36925735       0.00000000
Si      -0.56430189       1.95225876       3.10413389       0.00000000
