10
Lattice="16.28999089631971 0.0 0.0 0.0 16.28999089631971 0.0 0.0 0.0 34.56409401068381" Properties=species:S:1:pos:R:3:initial_magmoms:R:1 pbc="T T T"
Si      -1.35659091       1.35606105       1.35460217       0.00000000
Si      -1.35566414      -1.35812988      -1.35736729       0.00000000
Si       1.35884175       1.35725022      -1.35712535       0.00000000
Si       1.36058478      -1.35912357       1.36113478       0.00000000
Si      -2.70319096      -0.00627165       2.69949181       0.00000000
Si       0.00221218       2.70910845       2.71055233       0.00000000
Si      -2.71296496       2.71402803      -0.00044933       0.00000000
Si      -2.71311157      -0.00058644      -2.71452720       0.00000000
Si       0.00205906       2.71437012      -2.71459633       0.00000000
Si       0.00195480      -2.71493213      -2.71466546       0.00000000
