10
Lattice="16.28999089631971 0.0 0.0 0.0 16.28999089631971 0.0 0.0 0.0 34.56409401068381" Properties=species:S:1:pos:R:3:initial_magmoms:R:1 pbc="T T T"
Si      -1.87536996       0.80069911      -1.18668970       0.00000000
Si       1.47987712       1.21761071       1.45524737       0.00000000
Si      -0.72475839      -1.23779795      -1.96189364       0.00000000
Si      -1.20019833      -1.51808369       1.47859543       0.00000000
Si       1.23685639      -1.09617269      -3.16804294       0.00000000
Si       2.66231447      -2.69972771       0.32541771       0.00000000
Si       2.41970750       2.94543237       0.12774896       0.00000000
Si       0.09891288       2.51285142       2.89586233       0.00000000
Si      -2.76742665       2.65823967       0.09207880       0.00000000
Si      -2.60493390      -0.20345904       2.89695802       0.00000000
