10
Lattice="16.28999089631971 0.0 0.0 0.0 16.28999089631971 0.0 0.0 0.0 34.56409401068381" Properties=species:S:1:pos:R:3:initial_magmoms:R:1 pbc="T T T"
Si       1.34267067       1.35793440       1.34800042       0.00000000
Si       1.35501849      -1.35772263      -1.35698709       0.00000000
Si      -1.36094805       1.35744570      -1.35633037       0.00000000
Si      -1.37037996      -1.35529542       1.36977581       0.00000000
Si       2.68670970      -0.03012021       2.65970852       0.00000000
Si      -0.06193458       2.65574241       2.69444545       0.00000000
Si       2.71246923      -0.00001629      -2.71362854       0.00000000
Si       2.71139255      -2.71568961      -0.00193559       0.00000000
Si       2.71383993       2.71410948       0.00421682       0.00000000
Si      -0.00257382      -2.71450044      -2.71404331       0.00000000
