10
Lattice="16.28999089631971 0.0 0.0 0.0 16.28999089631971 0.0 0.0 0.0 34.56409401068381" Properties=species:S:1:pos:R:3:initial_magmoms:R:1 pbc="T T T"
Si       2.00642301      -1.23062805       0.52876181       0.00000000
Si      -1.84415832      -1.42526097       0.68530267       0.00000000
Si      -0.48803211       0.48386187      -2.39874946       0.00000000
Si      -0.23934897       2.03341554       1.44536753       0.00000000
Si      -3.23415144       0.31796451       1.49040457       0.00000000
Si      -3.15112131       1.75427010      -0.41978116       0.00000000
Si      -2.81856096       0.30042018      -2.29049466       0.00000000
Si      -2.91993363      -1.91878281      -1.37928094       0.00000000
Si      -1.58272011       3.46336803       0.09933726       0.00000000
Si       2.51438416      -2.72282463      -1.26445896       0.00000000
