10
Lattice="16.28999089631971 0.0 0.0 0.0 16.28999089631971 0.0 0.0 0.0 34.56409401068381" Properties=species:S:1:pos:R:3:initial_magmoms:R:1 pbc="T T T"
Si       1.34403903      -1.38805461       1.31170810       0.00000000
Si      -1.34267067      -1.35793440      -1.34800042       0.00000000
Si      -1.40460525       1.29780801       1.34644503       0.00000000
Si       1.37116926       1.35617508      -1.34378360       0.00000000
Si       2.73746675       0.03981276       2.57675465       0.00000000
Si      -2.70361872      -0.00048870      -2.70433079       0.00000000
Si       0.01257588       2.71604799      -2.70395059       0.00000000
Si       0.01234782      -2.71565703      -2.70498751       0.00000000
Si      -0.14338458       2.46710421       2.93255763       0.00000000
Si      -2.71305063      -2.71322982       0.02177539       0.00000000
