10
Lattice="16.28999089631971 0.0 0.0 0.0 16.28999089631971 0.0 0.0 0.0 34.56409401068381" Properties=species:S:1:pos:R:3:initial_magmoms:R:1 pbc="T T T"
Si       2.07251873       0.83981466       0.70151324       0.00000000
Si      -1.27024533       1.61251452      -1.17801411       0.00000000
Si       1.61060600      -0.81477693      -1.53381709       0.00000000
Si      -0.95034231      -1.84300173       1.26805363       0.00000000
Si       0.83934944       1.89871353       2.68020504       0.00000000
Si       0.21717828      -2.24264430      -2.79886364       0.00000000
Si       0.88666374      -3.39281604       0.84519626       0.00000000
Si       2.81374631      -2.33227188      -0.10981019       0.00000000
Si      -2.53146600       0.44321832      -2.76412671       0.00000000
Si      -2.64689694      -2.69461035      -0.12913153       0.00000000
