10
Lattice="16.28999089631971 0.0 0.0 0.0 16.28999089631971 0.0 0.0 0.0 34.56409401068381" Properties=species:S:1:pos:R:3:initial_magmoms:R:1 pbc="T T T"
Si       1.35835794      -1.34881200      -1.35076555       0.00000000
Si      -1.29586461      -1.38271149       1.39839490       0.00000000
Si      -1.36167947       1.36200690      -1.36230996       0.00000000
Si       1.37637468       1.45262817       1.29207568       0.00000000
Si      -0.14859738       2.60490132       2.63243744       0.00000000
Si      -0.00330687      -2.70622512      -2.71172751       0.00000000
Si       2.69057043      -2.72803743       0.06145499       0.00000000
Si       2.70899442       0.01101204      -2.71234967       0.00000000
Si      -0.00350235       2.72331333      -2.71463090       0.00000000
Si      -2.72048256       0.00895950      -2.71826013       0.00000000
