10
Lattice="16.28999089631971 0.0 0.0 0.0 16.28999089631971 0.0 0.0 0.0 34.56409401068381" Properties=species:S:1:pos:R:3:initial_magmoms:R:1 pbc="T T T"
Si      -1.65752379       1.74819393       0.16528998       0.00000000
Si      -0.91676862      -1.73763801       1.41389832       0.00000000
Si       1.85679936       0.97629228       1.35940454       0.00000000
Si      -1.11571839      -0.29421369      -2.62659610       0.00000000
Si      -2.13413661      -0.34441947       2.86571551       0.00000000
Si      -2.77303041       1.26811134      -1.90306552       0.00000000
Si       0.58438746       2.38195638       2.84192158       0.00000000
Si      -3.47252301       0.85369374       1.39899428       0.00000000
Si      -2.48575626      -2.92677543       0.06297581       0.00000000
Si      -0.77833620       3.65317911       1.36474470       0.00000000
