10
Lattice="16.28999089631971 0.0 0.0 0.0 16.28999089631971 0.0 0.0 0.0 34.56409401068381" Properties=species:S:1:pos:R:3:initial_magmoms:R:1 pbc="T T T"
Si       1.67756442      -1.04313015      -1.30928861       0.00000000
Si      -0.87128694       1.82220333      -1.29173004       0.00000000
Si      -1.62877194      -1.69445322      -0.69504975       0.00000000
Si       0.70908741       0.69434496       2.24659824       0.00000000
Si      -1.80802710      -1.25551917       2.80861072       0.00000000
Si       2.27622029       2.40991395       1.64604677       0.00000000
Si      -1.36681245       1.46212754       3.11592025       0.00000000
Si      -1.82413791      -3.01438305       1.20908725       0.00000000
Si       1.91844791      -3.18958200      -0.26324029       0.00000000
Si      -2.90774871       1.07149823      -2.47143780       0.00000000
