10
Lattice="16.28999089631971 0.0 0.0 0.0 16.28999089631971 0.0 0.0 0.0 34.56409401068381" Properties=species:S:1:pos:R:3:initial_magmoms:R:1 pbc="T T T"
Si      -1.92907809       1.16358494      -0.72017787       0.00000000
Si       1.22350932       2.00517424       0.40581725       0.00000000
Si      -0.94464081      -1.20016575       1.83034262       0.00000000
Si       1.52489061      -1.21021668      -1.40140197       0.00000000
Si      -2.40903036       2.44344366       1.23162305       0.00000000
Si       3.43852808       1.27755858       0.47027933       0.00000000
Si      -2.79503820      -2.15694261      -1.11759604       0.00000000
Si       0.53382330      -1.12246245      -3.53124264       0.00000000
Si      -2.01727215      -3.13696530       0.85653329       0.00000000
Si      -1.46882043       2.13005664      -2.83239083       0.00000000
