10
Lattice="16.28999089631971 0.0 0.0 0.0 16.28999089631971 0.0 0.0 0.0 34.56409401068381" Properties=species:S:1:pos:R:3:initial_magmoms:R:1 pbc="T T T"
Si      -1.10288187      -0.02909394       2.08314455       0.00000000
Si      -1.35098509       0.13758534      -1.95031466       0.00000000
Si       1.74979035       1.62202788       0.07362156       0.00000000
Si       1.17784845      -2.06790147      -0.20022991       0.00000000
Si       2.76441300      -1.18918629      -1.81264580       0.00000000
Si       0.44830080      -1.45961658       3.24681455       0.00000000
Si       3.71338695       0.26751438      -0.16964067       0.00000000
Si      -2.48318928       2.27437722      -1.60747322       0.00000000
Si       1.74506625       2.58318675      -2.08328280       0.00000000
Si       2.29053690      -2.31355467       1.89418254       0.00000000
