10
Lattice="16.28999089631971 0.0 0.0 0.0 16.28999089631971 0.0 0.0 0.0 34.56409401068381" Properties=species:S:1:pos:R:3:initial_magmoms:R:1 pbc="T T T"
Si      -1.35432185      -1.34809524       1.38494946       0.00000000
Si       1.36425828       1.36627488       1.38726525       0.00000000
Si       1.26764554      -1.49139837      -1.41339918       0.00000000
Si      -1.43160161       1.31271336      -1.46798974       0.00000000
Si      -2.70987791      -2.70150102       0.00309694       0.00000000
Si      -2.70401351       2.71837746       0.01452730       0.00000000
Si       2.71316802       2.71033020       0.01014457       0.00000000
Si       2.73100557      -2.70756090       0.01316547       0.00000000
Si       2.62002180      -0.19539855      -2.82158751       0.00000000
Si       0.00649124      -2.70972747       2.74394126       0.00000000
