10
Lattice="16.28999089631971 0.0 0.0 0.0 16.28999089631971 0.0 0.0 0.0 34.56409401068381" Properties=species:S:1:pos:R:3:initial_magmoms:R:1 pbc="T T T"
Si       1.21052619      -1.43628930      -1.38830218       0.00000000
Si      -1.51033712      -1.39207824       1.18281852       0.00000000
Si      -1.51672117       1.29096621      -1.35512063       0.00000000
Si       1.46535066       1.25164215       1.51743370       0.00000000
Si      -1.04842440       0.26251335       3.41814886       0.00000000
Si       2.54842389      -0.07666074      -2.73785798       0.00000000
Si       2.66295888      -2.63241513       0.02398749       0.00000000
Si      -0.23719869       2.56109751       2.78057922       0.00000000
Si      -0.16260678       2.63829582      -2.73972444       0.00000000
Si      -0.16210179      -2.79116118      -2.74024290       0.00000000
