10
Lattice="16.28999089631971 0.0 0.0 0.0 16.28999089631971 0.0 0.0 0.0 34.56409401068381" Properties=species:S:1:pos:R:3:initial_magmoms:R:1 pbc="T T T"
Si       0.86929174       1.20190878      -1.84378806       0.00000000
Si      -2.36534092       0.19966653      -0.14468538       0.00000000
Si       0.38542335       1.12972779       2.10115245       0.00000000
Si       1.13220420      -2.13679188      -0.34284144       0.00000000
Si       2.70862659       2.13322437      -0.70237735       0.00000000
Si      -3.09671305      -1.84880097       0.66677631       0.00000000
Si       2.48318928      -2.27437722       1.60747322       0.00000000
Si       2.28215439       2.45752569       1.63885743       0.00000000
Si      -1.05712360       2.14728264      -2.87905238       0.00000000
Si      -2.95083610       0.72839106      -2.37147838       0.00000000
