10
Lattice="16.28999089631971 0.0 0.0 0.0 16.28999089631971 0.0 0.0 0.0 34.56409401068381" Properties=species:S:1:pos:R:3:initial_magmoms:R:1 pbc="T T T"
Si      -1.37367936       1.36115819       1.32408205       0.00000000
Si      -1.36356872      -1.33339238      -1.37326679       0.00000000
Si       1.35029276       1.38036410      -1.36891171       0.00000000
Si       1.25981810      -1.46912247       1.47637154       0.00000000
Si      -2.71514457      -2.69644365       0.00497723       0.00000000
Si       2.71568798      -2.69838216       0.02011631       0.00000000
Si      -0.00747222      -2.68886880      -2.73039213       0.00000000
Si       2.70671219       0.02306012      -2.73115254       0.00000000
Si       0.05773502       2.70387773       2.74121070       0.00000000
Si      -2.71348299       2.73321602      -0.03055468       0.00000000
