10
Lattice="16.28999089631971 0.0 0.0 0.0 16.28999089631971 0.0 0.0 0.0 34.56409401068381" Properties=species:S:1:pos:R:3:initial_magmoms:R:1 pbc="T T T"
Si       1.16758575      -1.64843397      -1.13954084       0.00000000
Si      -1.25183600      -1.57363029       1.18686045       0.00000000
Si       1.64142927       1.24396956       1.11423088       0.00000000
Si       0.16664670       2.50744326       2.55382620       0.00000000
Si      -2.55835442      -0.20300598       2.58111457       0.00000000
Si       0.68180166      -1.57719780      -3.38772902       0.00000000
Si      -2.66231447       2.69972771      -0.32541771       0.00000000
Si       2.87598321      -0.21479994       2.55760060       0.00000000
Si       0.14885802      -2.93402448       2.56130587       0.00000000
Si       2.73841416       2.76683274      -0.52378116       0.00000000
