10
Lattice="16.28999089631971 0.0 0.0 0.0 16.28999089631971 0.0 0.0 0.0 34.56409401068381" Properties=species:S:1:pos:R:3:initial_magmoms:R:1 pbc="T T T"
Si      -1.35632183      -1.35021294      -1.35658615       0.00000000
Si       1.35783014      -1.35557235       1.35871529       0.00000000
Si      -1.35589556       1.35892008       1.35836965       0.00000000
Si       1.36867928       1.36023630      -1.38387451       0.00000000
Si       2.71516181      -2.70977634      -0.00321446       0.00000000
Si      -2.71628975      -2.71112841       0.00349098       0.00000000
Si      -2.71156565       2.71638261      -0.00003456       0.00000000
Si       0.00075097      -2.71321353       2.71552956       0.00000000
Si      -2.71345529       0.00128691       2.71580608       0.00000000
Si       2.71082867       2.71903950      -0.00228123       0.00000000
