10
Lattice="16.28999089631971 0.0 0.0 0.0 16.28999089631971 0.0 0.0 0.0 34.56409401068381" Properties=species:S:1:pos:R:3:initial_magmoms:R:1 pbc="T T T"
Si       1.35707917       1.35764118      -1.35681427       0.00000000
Si      -1.35669845       1.35695700       1.35788576       0.00000000
Si      -1.35845657      -1.35751086      -1.35691796       0.00000000
Si       1.35848012      -1.35799956       1.35788576       0.00000000
Si       0.00122990      -2.71207323      -2.71480372       0.00000000
Si      -2.71420626       2.71450044       0.00027651       0.00000000
Si      -0.00075097       2.71321353      -2.71552956       0.00000000
Si      -2.71704072       0.00208512      -2.71203859       0.00000000
Si      -2.71404336       0.00063531       2.71563326       0.00000000
Si      -2.71519995      -2.71459818       0.00017282       0.00000000
