10
Lattice="16.28999089631971 0.0 0.0 0.0 16.28999089631971 0.0 0.0 0.0 34.56409401068381" Properties=species:S:1:pos:R:3:initial_magmoms:R:1 pbc="T T T"
Si       1.34768799       1.36825770      -1.39099818       0.00000000
Si      -1.36609569      -1.35224919      -1.39141295       0.00000000
Si      -1.45586988       1.22925969       1.45625522       0.00000000
Si       1.55983266      -1.20989088       1.56900336       0.00000000
Si       2.70273906       2.70075072      -0.00687826       0.00000000
Si       2.71896390      -2.69443116       0.00718934       0.00000000
Si      -2.71568798       2.69838216      -0.02011631       0.00000000
Si      -2.72021008      -2.69957880      -0.00680913       0.00000000
Si       2.70506853       0.00752598      -2.74950609       0.00000000
Si      -0.00861741      -2.70658350      -2.75043932       0.00000000
