10
Lattice="16.28999089631971 0.0 0.0 0.0 16.28999089631971 0.0 0.0 0.0 34.56409401068381" Properties=species:S:1:pos:R:3:initial_magmoms:R:1 pbc="T T T"
Si       1.38036573       1.38594735       1.38380884       0.00000000
Si       1.45586988      -1.22925969      -1.45625522       0.00000000
Si      -1.25981810       1.46912247      -1.47637154       0.00000000
Si      -1.50001252      -1.21642317       1.49766303       0.00000000
Si       0.01518228      -2.65870719       2.67263550       0.00000000
Si      -2.71752128      -2.63236626       0.06307951       0.00000000
Si      -0.50109669       2.52137339       2.78154702       0.00000000
Si       0.08977419      -2.58150888      -2.84766817       0.00000000
Si      -2.63349746       2.83028066      -0.15228948       0.00000000
Si      -2.62338682       0.13573008      -2.84963832       0.00000000
