10
Lattice="16.28999089631971 0.0 0.0 0.0 16.28999089631971 0.0 0.0 0.0 34.56409401068381" Properties=species:S:1:pos:R:3:initial_magmoms:R:1 pbc="T T T"
Si      -1.21750875      -1.41594309      -1.43458352       0.00000000
Si       1.51519480      -1.44228402       1.17497247       0.00000000
Si       1.50001252       1.21642317      -1.49766303       0.00000000
Si      -0.77008369      -0.53551746       2.74518557       0.00000000
Si       1.43092663      -0.16044021       3.36149828       0.00000000
Si      -2.47495014      -0.01089801      -2.96905733       0.00000000
Si       2.88037825       2.60237052      -0.11385419       0.00000000
Si      -2.63879496      -2.96816832      -0.06698525       0.00000000
Si       0.24019442       2.68554564      -2.97403457       0.00000000
Si       0.23567232      -2.71241532      -2.96072738       0.00000000
