10
Lattice="10.86 0.0 0.0 0.0 10.86 0.0 0.0 0.0 10.86" Properties=species:S:1:pos:R:3:initial_magmoms:R:1 pbc="T T T"
Si      -1.37089038       1.37089038      -1.40037528       0.00000000
Si       1.38336852      -1.38336852      -1.39675890       0.00000000
Si       2.70976548       0.00523452      -2.70593190       0.00000000
Si      -0.00523452      -2.70976548      -2.70593190       0.00000000
Si       2.70976548      -2.70976548       0.00906810       0.00000000
Si      -2.72023452       0.00523452      -2.70593190       0.00000000
Si      -0.00523452       2.72023452      -2.70593190       0.00000000
Si       2.70976548       2.72023452       0.00906810       0.00000000
Si      -2.72023452      -2.70976548       0.00906810       0.00000000
Si      -0.00523452      -2.70976548       2.72406810       0.00000000
