10
Lattice="10.86 0.0 0.0 0.0 10.86 0.0 0.0 0.0 10.86" Properties=species:S:1:pos:R:3:initial_magmoms:R:1 pbc="T T T"
Si       1.29767226      -1.19630502       1.32022848       0.00000000
Si      -1.24684746      -1.39750824      -1.29798720       0.00000000
Si      -1.29026574       1.31326722       1.37995848       0.00000000
Si      -2.57872872      -0.04504728      -2.65921218       0.00000000
Si      -2.57872872       2.66995272       0.05578782       0.00000000
Si       0.10220346       2.61100464      -2.70946140       0.00000000
Si      -2.57872872      -2.76004728       0.05578782       0.00000000
Si      -2.57872872      -0.04504728       2.77078782       0.00000000
Si       0.13627128      -2.76004728      -2.65921218       0.00000000
Si       0.13627128       2.66995272       2.77078782       0.00000000
