10
Lattice="10.86 0.0 0.0 0.0 10.86 0.0 0.0 0.0 10.86" Properties=species:S:1:pos:R:3:initial_magmoms:R:1 pbc="T T T"
Si       1.31992440      -1.27297662      -1.23333762       0.00000000
Si      -1.39507560      -1.27297662       1.48166238       0.00000000
Si       1.31992440       1.44202338       1.48166238       0.00000000
Si       0.05196510       2.71834488      -2.40083106       0.00000000
Si      -0.03757560      -2.63047662      -2.59083762       0.00000000
Si      -2.69914440       0.02649840      -2.52226758       0.00000000
Si       2.67742440       0.08452338      -2.59083762       0.00000000
Si       2.67742440      -2.63047662       0.12416238       0.00000000
Si      -2.75257560      -2.63047662       0.12416238       0.00000000
Si      -0.03757560      -2.63047662       2.83916238       0.00000000
