10
Lattice="10.86 0.0 0.0 0.0 10.86 0.0 0.0 0.0 10.86" Properties=species:S:1:pos:R:3:initial_magmoms:R:1 pbc="T T T"
Si      -1.26483162      -1.42093326       1.26992496       0.00000000
Si      -1.23076380       1.35301482      -1.39482582       0.00000000
Si       1.48423620       1.35301482       1.32017418       0.00000000
Si       1.48423620      -1.36198518      -1.39482582       0.00000000
Si      -2.54248890      -2.71811682      -0.10836108       0.00000000
Si      -2.58826380       2.71051482      -0.03732582       0.00000000
Si      -2.58826380      -0.00448518      -2.75232582       0.00000000
Si      -2.62594800       0.10561350       2.71468506       0.00000000
Si       0.12673620       2.71051482       2.67767418       0.00000000
Si       2.85448584       0.13810662       2.56302516       0.00000000
