10
Lattice="16.290000149 0.0 0.0 0.0 16.290000149 0.0 0.0 0.0 29.1751946751" Properties=species:S:1:pos:R:3:initial_magmoms:R:1 pbc="T T T"
Si      -1.27114993       1.36052452       1.42307847       0.00000000
Si       1.34762284      -1.33648048       1.37575630       0.00000000
Si       1.34025976       1.37037997      -1.36289004       0.00000000
Si      -1.38049606      -1.35998695      -1.33403578       0.00000000
Si       2.66260052       0.12803940       2.65698498       0.00000000
Si       0.01571822      -2.69696917      -2.68160884       0.00000000
Si      -2.66305664       2.71616204       0.07147923       0.00000000
Si      -2.68438025       0.02096523      -2.70923775       0.00000000
Si      -0.06154362      -2.63409302       2.76219073       0.00000000
Si       2.71816571       0.02564046      -2.72055773       0.00000000
