10
Lattice="16.290000149 0.0 0.0 0.0 16.290000149 0.0 0.0 0.0 29.1751946751" Properties=species:S:1:pos:R:3:initial_magmoms:R:1 pbc="T T T"
Si      -1.41325525      -1.28518816       1.37902393       0.00000000
Si       1.32318784      -1.39480194      -1.36367777       0.00000000
Si       1.40072824       1.36930483       1.31460510       0.00000000
Si      -1.34848621       1.33415101      -1.40554418       0.00000000
Si       0.00736308       2.72139113       2.62757638       0.00000000
Si      -2.64388331      -2.71875215      -0.04525073       0.00000000
Si       2.58387095      -2.78726790       0.06719047       0.00000000
Si       2.68952789      -0.03479544      -2.73993006       0.00000000
Si      -2.71925714       2.72012051      -0.09435258       0.00000000
Si       2.73994545       2.71831232      -0.05756266       0.00000000
