10
Lattice="16.290000149 0.0 0.0 0.0 16.290000149 0.0 0.0 0.0 29.1751946751" Properties=species:S:1:pos:R:3:initial_magmoms:R:1 pbc="T T T"
Si       1.34203537       1.38036574      -1.31314634       0.00000000
Si      -1.36396171       1.36748035       1.34523905       0.00000000
Si       1.54403137      -1.32421411       1.18667187       0.00000000
Si      -1.41073030      -1.32460507      -1.35396243       0.00000000
Si       2.62746299      -2.74365957      -0.31109510       0.00000000
Si       2.64678293       0.03507237      -2.74395623       0.00000000
Si       2.57266343       2.81392974       0.11112832       0.00000000
Si      -0.05848110       2.72281651      -2.67166010       0.00000000
Si      -2.70855461       0.07299549       2.71478104       0.00000000
Si      -2.78510133      -2.64707615       0.00974452       0.00000000
