10
Lattice="16.290000149 0.0 0.0 0.0 16.290000149 0.0 0.0 0.0 29.1751946751" Properties=species:S:1:pos:R:3:initial_magmoms:R:1 pbc="T T T"
Si       1.42802865      -1.21805218       1.38777649       0.00000000
Si      -1.43787107       1.24610356       1.36382365       0.00000000
Si      -1.36092575      -1.40398624      -1.31848540       0.00000000
Si       1.36265688       1.43247745      -1.30238069       0.00000000
H       -1.18515778      -1.44137179       3.03176953       0.00000000
Si       2.57282470      -2.63647136      -0.08457889       0.00000000
Si      -0.05061955      -2.42372396       2.77908317       0.00000000
Si      -0.01569867       2.67763619       2.53777513       0.00000000
Si       2.56130767       0.03450222      -2.78092121       0.00000000
Si      -2.72833230       2.65937510       0.00344267       0.00000000
