10
Lattice="16.290000149 0.0 0.0 0.0 16.290000149 0.0 0.0 0.0 29.1751946751" Properties=species:S:1:pos:R:3:initial_magmoms:R:1 pbc="T T T"
Si      -1.42802865       1.21805218      -1.38777649       0.00000000
Si       1.14479605      -1.41841918      -1.47235537       0.00000000
Si      -1.47864820      -1.20567178       1.39130668       0.00000000
Si       1.50154705       1.34574949       1.29730421       0.00000000
H        0.04875597      -2.66579336       0.75204899       0.00000000
H       -2.61318644      -0.22331961       1.64399304       0.00000000
H        2.05786685      -2.32191146      -0.67578503       0.00000000
Si      -0.18932238      -1.09698490       3.42642239       0.00000000
Si      -0.06537177       2.65052963      -2.69015718       0.00000000
Si       0.11271051       2.81193096       2.52260403       0.00000000
