10
Lattice="16.290000149 0.0 0.0 0.0 16.290000149 0.0 0.0 0.0 29.1751946751" Properties=species:S:1:pos:R:3:initial_magmoms:R:1 pbc="T T T"
Si       1.36793647       1.35726652       1.32890094       0.00000000
Si       1.37150398      -1.35593074      -1.33240197       0.00000000
Si      -1.34239375       1.38388438      -1.34383864       0.00000000
Si      -1.37399635      -1.33801174       1.36166469       0.00000000
Si      -0.07029135       2.69039126       2.61068395       0.00000000
Si      -0.00324171      -2.70257618      -2.67434422       0.00000000
Si      -2.69146640       0.02353905      -2.69406665       0.00000000
Si      -0.01964574      -2.70542693       2.69879303       0.00000000
Si       2.72028341       0.01036044      -2.68849419       0.00000000
Si       2.72056034       2.70974378      -0.03308467       0.00000000
