10
Lattice="16.290000149 0.0 0.0 0.0 16.290000149 0.0 0.0 0.0 29.1751946751" Properties=species:S:1:pos:R:3:initial_magmoms:R:1 pbc="T T T"
Si       1.53847648      -1.27731520      -1.19142743       0.00000000
Si       1.39909924       1.32105385       1.36171428       0.00000000
Si      -1.21443580      -1.43014798       1.44904439       0.00000000
Si      -1.46557873       1.21311631      -1.45662994       0.00000000
H        0.39104145      -1.85847725      -2.23155229       0.00000000
Si      -2.67092471       2.68320737      -0.02978787       0.00000000
Si       2.85932801       2.49930956      -0.05566627       0.00000000
Si      -2.64859112      -0.06038703       2.72887266       0.00000000
Si      -0.13017339       2.54194049      -2.85566805       0.00000000
Si       0.06641433       2.75898846       2.67619393       0.00000000
