10
Lattice="16.290000149 0.0 0.0 0.0 16.290000149 0.0 0.0 0.0 29.1751946751" Properties=species:S:1:pos:R:3:initial_magmoms:R:1 pbc="T T T"
Si      -1.32563134       1.31096036       1.42759771       0.00000000
Si      -1.42762303      -1.34703640      -1.29306593       0.00000000
Si       1.32936175      -1.39597156       1.37159009       0.00000000
Si       1.33797916       1.36487558      -1.40631149       0.00000000
Si       0.01943397      -2.55373445      -2.63295337       0.00000000
Si       2.63529848       2.64545530       0.10405625       0.00000000
Si      -2.60414549       2.68282619       0.04253743       0.00000000
Si      -2.73761109      -0.08131968       2.68276710       0.00000000
Si       2.66742236      -0.07552044       2.77986215       0.00000000
Si       2.71450046      -2.75141361       0.04981956       0.00000000
