10
Lattice="16.290000149 0.0 0.0 0.0 16.290000149 0.0 0.0 0.0 29.1751946751" Properties=species:S:1:pos:R:3:initial_magmoms:R:1 pbc="T T T"
Si       1.13453824      -0.98235217      -0.25268636       0.00000000
Si      -1.89282308       1.62691489      -0.24031608       0.00000000
Si      -1.53340052       1.36083403       2.12197026       0.00000000
H       -1.03829855      -1.89583022       2.08141674       0.00000000
Si      -0.18248856      -2.67460625      -1.40178058       0.00000000
Si       2.61318644       0.22331961      -1.64399304       0.00000000
Si       2.42386406      -0.87366529       1.78242934       0.00000000
Si      -0.25271329       2.68747535      -1.66794588       0.00000000
Si      -1.05613610      -0.75360799       3.06181998       0.00000000
Si      -2.96527524      -0.05620050      -1.63039740       0.00000000
