10
Lattice="16.290000149 0.0 0.0 0.0 16.290000149 0.0 0.0 0.0 29.1751946751" Properties=species:S:1:pos:R:3:initial_magmoms:R:1 pbc="T T T"
Si       1.38665368      -1.35011521      -1.35227027       0.00000000
Si      -1.35226549      -1.38293956       1.35399161       0.00000000
Si       1.41115384       1.35760861       1.32125704       0.00000000
Si      -1.33187041       1.31763295      -1.44040854       0.00000000
Si      -2.69099399      -2.67136454      -0.07530118       0.00000000
H       -1.11039157       2.93081538       2.14000053       0.00000000
Si       2.70161507      -0.05566293       2.68163802       0.00000000
Si       0.07491771       2.42093837       2.94118055       0.00000000
Si       2.72730440       2.68843646      -0.11950160       0.00000000
Si       0.04158837      -2.67444335      -2.76044022       0.00000000
