10
Lattice="16.290000149 0.0 0.0 0.0 16.290000149 0.0 0.0 0.0 29.1751946751" Properties=species:S:1:pos:R:3:initial_magmoms:R:1 pbc="T T T"
Si      -0.54825624       1.03695625       2.01020009       0.00000000
Si      -1.62038260      -1.68946850      -0.06570254       0.00000000
Si       2.19222677      -0.72371584      -0.46776590       0.00000000
Si       0.04950531       2.14688681      -0.97731067       0.00000000
Si       0.69340015       2.82544677       1.16887500       0.00000000
Si       1.90511552       0.16330725      -2.70772064       0.00000000
Si       1.92572237      -2.75384082       0.73139296       0.00000000
Si      -3.44541648      -0.23765481       0.09919566       0.00000000
Si      -0.22258656      -0.80710435      -3.38359320       0.00000000
Si      -2.78107770       1.53264466       1.68247513       0.00000000
