10
Lattice="16.290000149 0.0 0.0 0.0 16.290000149 0.0 0.0 0.0 29.1751946751" Properties=species:S:1:pos:R:3:initial_magmoms:R:1 pbc="T T T"
Si       1.35670452      -1.34042266       1.38139295       0.00000000
Si      -1.50761508      -1.38877138      -1.16178747       0.00000000
Si      -1.40256087       1.34931700       1.36645525       0.00000000
Si       1.48837659       1.20353779      -1.43360488       0.00000000
Si      -2.65050520       0.11057652      -2.54520897       0.00000000
Si      -0.24109852      -2.82072756      -2.48204468       0.00000000
Si       2.65969276       2.67165776       0.01350228       0.00000000
Si       0.12916993       2.60429861      -2.75401584       0.00000000
Si      -0.01631606      -2.70399341       2.74197816       0.00000000
Si       2.67766063       0.00060273       2.77345819       0.00000000
