10
Lattice="16.290000149 0.0 0.0 0.0 16.290000149 0.0 0.0 0.0 29.1751946751" Properties=species:S:1:pos:R:3:initial_magmoms:R:1 pbc="T T T"
Si       1.49532427      -1.26649864      -1.27486848       0.00000000
Si      -1.34131861       1.41639922      -1.36519488       0.00000000
Si      -1.39572721      -1.81786628       0.75111539       0.00000000
Si       1.07245216       1.68311540       1.39008133       0.00000000
H        2.96527524       0.05620050       1.63039740       0.00000000
Si      -2.46560555       2.52921800       0.39097678       0.00000000
Si       0.06696819      -2.53451225      -2.68190060       0.00000000
Si      -0.60237163       3.36248409       1.64705644       0.00000000
Si       2.78278668      -2.61840575       0.22861683       0.00000000
Si      -3.14159169      -0.84701485       2.02837623       0.00000000
