10
Lattice="16.290000149 0.0 0.0 0.0 16.290000149 0.0 0.0 0.0 29.1751946751" Properties=species:S:1:pos:R:3:initial_magmoms:R:1 pbc="T T T"
Si      -1.30798927      -1.31300333      -1.44571842       0.00000000
Si      -1.32318784       1.39480194       1.36367777       0.00000000
Si       1.26068311      -1.39246595       1.43086825       0.00000000
Si       1.36634005       1.36000650      -1.37625228       0.00000000
Si      -2.66232359      -2.66924359      -0.11238285       0.00000000
Si       2.66198150       0.02235314       2.68884429       0.00000000
Si       2.69125463      -2.67463558       0.02042264       0.00000000
Si      -2.67167405       2.72895295      -0.04186640       0.00000000
Si       0.07754040       2.76410677       2.67828287       0.00000000
Si      -2.68283270       0.03412103      -2.78153389       0.00000000
