10
Lattice="16.290000149 0.0 0.0 0.0 16.290000149 0.0 0.0 0.0 29.1751946751" Properties=species:S:1:pos:R:3:initial_magmoms:R:1 pbc="T T T"
Si       1.35270695       1.35239581       1.36014758       0.00000000
Si       1.38919818      -1.35809731      -1.32458301       0.00000000
Si      -1.33762078      -1.35821134       1.38039516       0.00000000
Si      -1.34513047       1.38223909      -1.35282460       0.00000000
Si      -2.69003288       2.71230131       0.03279292       0.00000000
Si       0.05343332      -2.73561231      -2.66757557       0.00000000
Si      -2.70314633       0.03569139      -2.70719549       0.00000000
Si       2.69092883      -0.00791694       2.72300844       0.00000000
Si       2.70989039       2.70578531      -0.00288834       0.00000000
Si      -2.69749370      -2.72187983       0.04918938       0.00000000
