10
Lattice="16.290000149 0.0 0.0 0.0 16.290000149 0.0 0.0 0.0 29.1751946751" Properties=species:S:1:pos:R:3:initial_magmoms:R:1 pbc="T T T"
Si      -1.41347028       1.22626234      -1.38092031       0.00000000
Si      -1.30654924      -1.49345092       1.27457673       0.00000000
Si       1.50759064      -1.32857983      -1.25021544       0.00000000
Si       0.66666826       1.87970312       1.29196515       0.00000000
Si       0.05069448       2.60957657      -2.59764263       0.00000000
Si       0.24988860      -2.57720834       2.64718211       0.00000000
Si      -2.75643093       2.52815915       0.03906559       0.00000000
Si       0.07180632      -2.73860967      -2.56557909       0.00000000
Si      -2.70303230      -0.18088416      -2.70051437       0.00000000
Si      -0.98372053       3.53365941       1.19066887       0.00000000
