10
Lattice="16.290000149 0.0 0.0 0.0 16.290000149 0.0 0.0 0.0 29.1751946751" Properties=species:S:1:pos:R:3:initial_magmoms:R:1 pbc="T T T"
Si      -1.16114307       0.15433146      -2.02099491       0.00000000
Si       0.23275478       1.86092075       1.42707547       0.00000000
Si       2.30996275      -0.17801712      -0.59610758       0.00000000
Si      -1.15519722      -2.06464349       0.59319006       0.00000000
H       -2.70344770       0.58345894       0.00881091       0.00000000
H       -2.18969368      -0.95755879      -1.81046671       0.00000000
Si      -3.16078945      -0.69400288       0.67718544       0.00000000
Si       1.66917930       0.68129668       2.87807460       0.00000000
Si       1.88783997      -2.00481032      -2.06843378       0.00000000
Si       0.33140213      -0.92105290      -3.44103916       0.00000000
