10
Lattice="16.290000149 0.0 0.0 0.0 16.290000149 0.0 0.0 0.0 29.1751946751" Properties=species:S:1:pos:R:3:initial_magmoms:R:1 pbc="T T T"
Si      -1.41410233      -1.29500614      -1.34199477       0.00000000
Si      -1.38513871       1.35544204       1.32177052       0.00000000
Si       1.32049999       1.40278078      -1.34533183       0.00000000
Si       1.36946773      -1.41397201       1.30579711       0.00000000
Si       2.62347194       2.58119939       0.21370247       0.00000000
Si       2.66579336       0.05097141      -2.68983333       0.00000000
Si      -0.10059075      -2.71541270      -2.64207354       0.00000000
Si      -2.73460233      -0.04383639       2.64511359       0.00000000
Si      -2.69506649       0.19767915      -2.68277293       0.00000000
Si      -0.04707810       2.67589316       2.73004258       0.00000000
