10
Lattice="16.290000149 0.0 0.0 0.0 16.290000149 0.0 0.0 0.0 29.1751946751" Properties=species:S:1:pos:R:3:initial_magmoms:R:1 pbc="T T T"
Si       1.77271040       1.00550026       1.15160328       0.00000000
Si       1.34296064      -1.30189681      -1.41998590       0.00000000
Si      -1.23243625       1.49556862      -1.35956407       0.00000000
Si      -1.29906235      -1.30621366       1.49146513       0.00000000
Si      -2.30166299       0.45613629       2.74669870       0.00000000
H       -3.15322275      -0.79702084      -1.58412555       0.00000000
Si      -2.50664006       0.03236823      -2.65858961       0.00000000
Si       3.42309918      -0.64845604       1.25289956       0.00000000
Si       2.75643093      -2.52815915      -0.03906559       0.00000000
Si       2.69343749       2.73637794      -0.12988797       0.00000000
