10
Lattice="16.290000149 0.0 0.0 0.0 16.290000149 0.0 0.0 0.0 29.1751946751" Properties=species:S:1:pos:R:3:initial_magmoms:R:1 pbc="T T T"
Si      -1.26700363       1.84919195       0.61921433       0.00000000
Si       1.61398063       0.65461366      -1.56971300       0.00000000
Si      -1.52598205      -0.69823828      -1.65435024       0.00000000
Si       0.02818170      -1.45617940       1.94012127       0.00000000
H        2.14648445      -1.28340766      -0.13446847       0.00000000
H        0.05870916       2.36165906       1.55407509       0.00000000
H        0.10388133      -2.70253057      -1.04403434       0.00000000
H        1.63181818      -0.48760857      -2.55011624       0.00000000
Si      -2.76526011      -2.01282500      -0.15696255       0.00000000
H       -0.30522573       3.06522417      -2.07555252       0.00000000
