10
Lattice="16.290000149 0.0 0.0 0.0 16.290000149 0.0 0.0 0.0 29.1751946751" Properties=species:S:1:pos:R:3:initial_magmoms:R:1 pbc="T T T"
Si       1.35863488      -1.35724697      -1.33972494       0.00000000
Si       1.37474569       1.34664544       1.34194225       0.00000000
Si      -1.34333857      -1.35670289       1.36484478       0.00000000
Si      -1.32877531       1.37085238      -1.37263456       0.00000000
Si       0.00324171       2.70257618       2.67434422       0.00000000
Si       2.70629030       0.01855431      -2.67481102       0.00000000
Si       0.04595409      -2.70612740       2.69730510       0.00000000
Si       0.00368154      -2.72748359      -2.67965411       0.00000000
Si      -2.68822469       2.72611523      -0.01972243       0.00000000
Si      -2.70021413      -2.71863812       0.01464595       0.00000000
