10
Lattice="16.290000149 0.0 0.0 0.0 16.290000149 0.0 0.0 0.0 29.1751946751" Properties=species:S:1:pos:R:3:initial_magmoms:R:1 pbc="T T T"
Si       1.32219415       1.31883841      -1.37379486       0.00000000
Si      -1.25936362       1.40206402       1.35743720       0.00000000
Si      -1.73993492      -0.93734290      -1.25340371       0.00000000
Si       1.45010908      -1.39256695       1.21465671       0.00000000
Si      -3.43722261       0.73080199      -1.14999865       0.00000000
Si      -2.57360825       2.66535353      -0.11674454       0.00000000
Si      -2.66975183      -0.00993690       2.60818947       0.00000000
Si      -2.59936274      -2.67960728       0.10618896       0.00000000
Si       2.58871071      -0.11311776      -2.69405206       0.00000000
Si       2.81349317       0.00361638       2.52997077       0.00000000
