10
Lattice="16.290000149 0.0 0.0 0.0 16.290000149 0.0 0.0 0.0 29.1751946751" Properties=species:S:1:pos:R:3:initial_magmoms:R:1 pbc="T T T"
Si       1.34566641       1.34897491      -1.36887096       0.00000000
Si       1.35012987      -1.36005211       1.36000170       0.00000000
Si      -1.33068945       1.34706898       1.39256122       0.00000000
Si      -1.36502219      -1.33126768      -1.37651486       0.00000000
Si       2.67660830       2.69263928       0.04659279       0.00000000
Si      -2.70489099      -2.68359833       0.01006544       0.00000000
Si      -2.69905917       2.70391196       0.05199020       0.00000000
Si       2.69113898       0.00097740       2.72545916       0.00000000
Si      -0.00864836      -2.71213841      -2.71165929       0.00000000
Si       2.69799707      -0.01725111      -2.72933946       0.00000000
