10
Lattice="16.290000149 0.0 0.0 0.0 16.290000149 0.0 0.0 0.0 29.1751946751" Properties=species:S:1:pos:R:3:initial_magmoms:R:1 pbc="T T T"
Si       1.34627077       1.33148597      -1.34559791       0.00000000
Si      -1.35532801       1.39376264       1.29126494       0.00000000
Si       1.36938628      -1.36143025       1.31329221       0.00000000
Si      -1.30106602      -1.32527643      -1.42558170       0.00000000
Si      -2.67961054       0.00898068       2.65220025       0.00000000
Si      -0.01692531      -2.72159639       2.61768599       0.00000000
Si       0.03692943       2.73690573       2.62031176       0.00000000
Si       2.72433962       0.00880637       2.65322138       0.00000000
Si      -2.57958017       0.04658940      -2.81064198       0.00000000
Si      -2.64838098       2.74814583      -0.13942826       0.00000000
