10
Lattice="16.28999089631971 0.0 0.0 0.0 16.28999089631971 0.0 0.0 0.0 34.3005442915855" Properties=species:S:1:pos:R:3:initial_magmoms:R:1 pbc="T T T"
Si       2.21308447      -0.37835154      -0.63209078       0.00000000
Si      -0.96195775       1.89024273      -0.99042877       0.00000000
Si       0.49402846       0.42635817       2.26462610       0.00000000
Si      -1.26073264      -1.99247877      -0.30143335       0.00000000
Si       1.22551951      -1.82837331       2.49670371       0.00000000
Si      -2.36447788       0.55705284      -2.28122757       0.00000000
Si      -0.60029399      -3.14893845       1.73903857       0.00000000
Si      -3.40000060      -1.04462883      -0.84969356       0.00000000
Si       2.98234714      -1.93894983       0.96950543       0.00000000
Si       2.38447156       1.94167026       2.04458799       0.00000000
