10
Lattice="16.28999089631971 0.0 0.0 0.0 16.28999089631971 0.0 0.0 0.0 34.3005442915855" Properties=species:S:1:pos:R:3:initial_magmoms:R:1 pbc="T T T"
Si      -1.31070969      -1.36898621      -1.41452094       0.00000000
Si      -1.78509078       0.95198760       1.24703129       0.00000000
Si       1.57009536       1.51058799      -1.17794995       0.00000000
Si       0.76460373      -1.76151005       1.59940097       0.00000000
Si      -0.24371469       0.85527387       3.01278999       0.00000000
Si      -2.52509498      -2.48349914       0.28812473       0.00000000
Si       2.97554769      -2.10087962       0.77378641       0.00000000
Si      -2.54133611       0.11243358      -2.73145677       0.00000000
Si       0.18428877      -2.60642348      -2.72538557       0.00000000
Si       0.18725355       2.83185360      -2.69787652       0.00000000
