10
Lattice="16.28999089631971 0.0 0.0 0.0 16.28999089631971 0.0 0.0 0.0 34.3005442915855" Properties=species:S:1:pos:R:3:initial_magmoms:R:1 pbc="T T T"
Si      -1.38284181       1.32126561      -1.51992657       0.00000000
Si       1.31887098      -1.38456366      -1.52884471       0.00000000
Si      -1.57009536      -1.51058799       1.17794995       0.00000000
Si       1.56532239       1.33600806       1.49818001       0.00000000
Si       2.65057848      -2.81045573      -0.20288783       0.00000000
Si       2.81276172       2.73349458      -0.06939004       0.00000000
Si      -2.90432781       2.65256586      -0.14385656       0.00000000
Si      -0.02666673       2.67506235      -2.90899649       0.00000000
Si       2.68796403      -0.04074129      -2.90704135       0.00000000
Si      -2.74054815      -0.04333140      -2.90755586       0.00000000
