10
Lattice="16.28999089631971 0.0 0.0 0.0 16.28999089631971 0.0 0.0 0.0 34.3005442915855" Properties=species:S:1:pos:R:3:initial_magmoms:R:1 pbc="T T T"
Si       0.64757637      -0.14518137       2.20768717       0.00000000
Si      -0.48470895       2.22603502      -0.38485232       0.00000000
Si       1.93077225      -0.51038851      -1.22466732       0.00000000
Si      -1.80605601      -1.22974906      -0.89781725       0.00000000
Si       1.34402274      -2.41597057       2.31223528       0.00000000
Si       1.10133432      -0.52316638      -3.39284023       0.00000000
Si      -0.92510910      -1.71538654      -3.04664465       0.00000000
Si      -2.40355692       2.77054456       0.90093860       0.00000000
Si       1.38168522       3.52411996       0.30249667       0.00000000
Si      -2.17323261      -3.11207485       0.59562928       0.00000000
