10
Lattice="16.28999089631971 0.0 0.0 0.0 16.28999089631971 0.0 0.0 0.0 34.3005442915855" Properties=species:S:1:pos:R:3:initial_magmoms:R:1 pbc="T T T"
Si       1.67071380       0.75056175      -1.42638893       0.00000000
Si      -0.58189346       1.94017158       1.14900027       0.00000000
Si      -1.98753868      -1.29977910      -0.23108290       0.00000000
Si       0.94846407      -1.69992666       1.43252873       0.00000000
Si      -0.71098031      -3.11263523       0.60677697       0.00000000
Si       1.58690175       2.65126266       1.72679327       0.00000000
Si      -3.27361789      -0.20002491       1.41729928       0.00000000
Si      -2.04826780       1.25924958       2.83134001       0.00000000
Si       2.18272479      -0.87164532      -2.98044456       0.00000000
Si      -1.92531088       3.27251439      -0.33096614       0.00000000
