10
Lattice="16.28999089631971 0.0 0.0 0.0 16.28999089631971 0.0 0.0 0.0 34.3005442915855" Properties=species:S:1:pos:R:3:initial_magmoms:R:1 pbc="T T T"
Si       0.63565209       1.18486944      -1.84808006       0.00000000
Si      -0.35031645       1.36622601       1.85497447       0.00000000
Si       1.95742269      -1.18644957       0.58163465       0.00000000
Si      -1.86639417      -1.29808494      -0.68734899       0.00000000
Si       0.61498008      -0.09602955       3.46600334       0.00000000
Si       1.09757133      -2.26839879       2.47235031       0.00000000
Si       2.40914439      -2.63533104      -1.17822435       0.00000000
Si      -1.38168522      -3.52411996      -0.30249667       0.00000000
Si       0.69514317       3.43733661       1.55707408       0.00000000
Si       2.76120387       2.13060168      -1.62176494       0.00000000
