10
Lattice="16.28999089631971 0.0 0.0 0.0 16.28999089631971 0.0 0.0 0.0 34.3005442915855" Properties=species:S:1:pos:R:3:initial_magmoms:R:1 pbc="T T T"
Si      -1.74708621      -0.81301761      -1.37761353       0.00000000
Si       2.13934941       0.90564255      -0.48802842       0.00000000
Si      -0.63864945       2.29172607       0.24710126       0.00000000
Si       0.80728353      -1.67617584       1.54198183       0.00000000
Si       1.58760711       2.99721339       0.57652387       0.00000000
Si      -3.39461446      -1.06029981       0.33655713       0.00000000
Si       1.91723526       1.09022454      -2.86948224       0.00000000
Si      -1.24408359      -2.93835762      -2.09157976       0.00000000
Si      -2.39547708       2.40230259       1.77429955       0.00000000
Si       2.92069926      -2.45153097       0.75814535       0.00000000
