10
Lattice="16.28999089631971 0.0 0.0 0.0 16.28999089631971 0.0 0.0 0.0 34.3005442915855" Properties=species:S:1:pos:R:3:initial_magmoms:R:1 pbc="T T T"
Si      -0.14333571       0.58192767       2.25145468       0.00000000
Si       0.31708485       2.07972801      -1.02099057       0.00000000
Si      -2.22625656      -0.70548732      -0.32942261       0.00000000
Si       0.55174230      -2.09157084      -1.06455229       0.00000000
Si      -1.58760711      -2.99721339      -0.57652387       0.00000000
Si      -2.99551923       0.85511097      -1.93101882       0.00000000
Si      -1.87150923       2.83882572      -1.38022037       0.00000000
Si      -0.95866650      -1.25201682       3.39613309       0.00000000
Si       2.02419540       1.07737173       3.00493516       0.00000000
Si       1.31421204       1.72089189      -3.15458852       0.00000000
