10
Lattice="16.28999089631971 0.0 0.0 0.0 16.28999089631971 0.0 0.0 0.0 34.3005442915855" Properties=species:S:1:pos:R:3:initial_magmoms:R:1 pbc="T T T"
Si       2.06842112      -0.68048217      -0.78613461       0.00000000
Si       0.24294092       1.38960216       1.84077404       0.00000000
Si      -0.93492450       1.46714256      -1.55731418       0.00000000
Si      -0.94354191      -1.90689763       1.13329062       0.00000000
Si      -2.07888975       1.16662464       2.10375646       0.00000000
Si       0.91824938      -1.93327928       2.58022559       0.00000000
Si      -3.46839417       0.25969518       0.32520364       0.00000000
Si       2.71575314      -1.99049954       1.07230421       0.00000000
Si      -3.01895307      -1.39719982      -1.33490933       0.00000000
Si      -2.16027459       0.00786807      -2.97135491       0.00000000
