10
Lattice="16.28999089631971 0.0 0.0 0.0 16.28999089631971 0.0 0.0 0.0 34.3005442915855" Properties=species:S:1:pos:R:3:initial_magmoms:R:1 pbc="T T T"
Si       1.35782037      -1.35691139      -1.36001734       0.00000000
Si      -1.36003581       1.35725022      -1.36042895       0.00000000
Si      -1.36909305      -1.34382237       1.37819664       0.00000000
Si       1.37513664       1.34416935       1.38776650       0.00000000
Si       2.71033020      -2.71484575       0.00250394       0.00000000
Si       2.71539639       2.71362078      -0.00137202       0.00000000
Si      -2.71463076       2.71580364      -0.00195513       0.00000000
Si       2.71425609      -0.00017919      -2.71715344       0.00000000
Si      -0.00074934       2.71467963      -2.71708483       0.00000000
Si      -2.71906164      -2.71276460      -0.00133772       0.00000000
