10
Lattice="16.28999089631971 0.0 0.0 0.0 16.28999089631971 0.0 0.0 0.0 34.3005442915855" Properties=species:S:1:pos:R:3:initial_magmoms:R:1 pbc="T T T"
Si      -0.12134421       2.25276528       0.68014587       0.00000000
Si      -2.02733937      -0.80590118      -0.89274077       0.00000000
Si       0.12408093      -1.45693103       1.87775005       0.00000000
Si       1.92601557      -0.78171053      -1.16813999       0.00000000
Si       2.01810294      -2.35149638       0.57923362       0.00000000
Si      -1.17084375       1.62028974       2.73289739       0.00000000
Si      -1.53652167      -3.15645044      -0.82108689       0.00000000
Si       0.39863259       0.09234638       3.63959849       0.00000000
Si       0.18790515      -3.69915179       0.70237264       0.00000000
Si      -1.23356025       3.44208189      -1.08931729       0.00000000
