10
Lattice="16.28999089631971 0.0 0.0 0.0 16.28999089631971 0.0 0.0 0.0 34.3005442915855" Properties=species:S:1:pos:R:3:initial_magmoms:R:1 pbc="T T T"
Si      -0.45172170       1.44888147       1.75985901       0.00000000
Si      -1.86005736      -1.39917742      -0.34893963       0.00000000
Si       1.56947634      -1.52794336       0.90670109       0.00000000
Si       1.04949954       0.63247554      -2.05275152       0.00000000
Si       1.17084375      -1.62028974      -2.73289739       0.00000000
Si       1.29492468      -3.07722077      -0.85514735       0.00000000
Si       1.68467922       2.45431656       2.15448699       0.00000000
Si      -0.97652034      -3.58286237      -0.15267181       0.00000000
Si      -2.40914439       2.63533104       1.17822435       0.00000000
Si       2.96113104       1.87435998      -1.38584567       0.00000000
