10
Lattice="16.28999089631971 0.0 0.0 0.0 16.28999089631971 0.0 0.0 0.0 34.3005442915855" Properties=species:S:1:pos:R:3:initial_magmoms:R:1 pbc="T T T"
Si      -0.86938101       2.02442346      -0.74686047       0.00000000
Si       0.49339152      -0.60748668       2.21698262       0.00000000
Si       1.48488237      -0.89161686      -1.64481492       0.00000000
Si      -2.22723396      -0.87553863       0.61425449       0.00000000
Si       2.75592591      -1.15222428       0.41959879       0.00000000
Si      -2.71336014       1.61696169       0.64087173       0.00000000
Si      -2.18518947      -2.98402568      -1.02809079       0.00000000
Si      -1.57514526       1.92961566      -3.04729636       0.00000000
Si       0.67131090       3.86424864      -0.88303371       0.00000000
Si       1.34762283       1.09887453       3.66904350       0.00000000
