10
Lattice="16.28999089631971 0.0 0.0 0.0 16.28999089631971 0.0 0.0 0.0 34.3005442915855" Properties=species:S:1:pos:R:3:initial_magmoms:R:1 pbc="T T T"
Si       1.35681039       1.35627282       1.35727330       0.00000000
Si       1.35721764      -1.35733167      -1.35741050       0.00000000
Si      -1.35769005       1.35806472      -1.35723900       0.00000000
Si      -1.35928647      -1.35742941       1.35665589       0.00000000
Si      -2.71295289       0.00135207      -2.71447799       0.00000000
Si      -2.71388142       0.00112401       2.71512970       0.00000000
Si       2.71448415       2.71472850       0.00000000       0.00000000
Si       2.71500543      -2.71485882      -0.00006860       0.00000000
Si      -2.71534752      -2.71515204      -0.00006860       0.00000000
Si      -2.71524978       2.71531494       0.00020580       0.00000000
