10
Lattice="16.28999089631971 0.0 0.0 0.0 16.28999089631971 0.0 0.0 0.0 34.3005442915855" Properties=species:S:1:pos:R:3:initial_magmoms:R:1 pbc="T T T"
Si       1.34025975       1.36945143      -1.38913852       0.00000000
Si      -1.37513664      -1.34416935      -1.38776650       0.00000000
Si      -1.25033895       1.43006652       1.44988482       0.00000000
Si       1.46241846      -1.41332040       1.54517178       0.00000000
Si       2.70044217      -2.67813953      -0.03193382       0.00000000
Si       2.68944642       2.72311785      -0.01269121       0.00000000
Si      -2.74422969      -2.68799172      -0.00956986       0.00000000
Si       2.69746110       0.01306458      -2.74809254       0.00000000
Si      -0.01731627      -2.70108074      -2.74778384       0.00000000
Si      -2.73984768       2.70932022      -0.01344582       0.00000000
