10
Lattice="16.28999089631971 0.0 0.0 0.0 16.28999089631971 0.0 0.0 0.0 34.3005442915855" Properties=species:S:1:pos:R:3:initial_magmoms:R:1 pbc="T T T"
Si      -1.35615879       1.35917244       1.36327589       0.00000000
Si       1.36153449      -1.35461124       1.36310439       0.00000000
Si       1.36663326       1.38549708      -1.34672930       0.00000000
Si      -1.35540945      -1.37686338      -1.37305156       0.00000000
Si      -2.50943052       0.12914712      -2.79767058       0.00000000
Si       2.71616202      -2.71006956       0.00298415       0.00000000
Si      -2.71459981      -2.71166598       0.00764903       0.00000000
Si      -2.71358168       2.71428867       0.00061741       0.00000000
Si       2.71480995       2.71518462       0.00792343       0.00000000
Si       0.00130320      -2.71313208       2.71979458       0.00000000
