10
Lattice="16.28999089631971 0.0 0.0 0.0 16.28999089631971 0.0 0.0 0.0 34.3005442915855" Properties=species:S:1:pos:R:3:initial_magmoms:R:1 pbc="T T T"
Si       1.09907001      -1.49494959       1.47245116       0.00000000
Si      -0.72547515      -1.91383065      -1.38157666       0.00000000
Si      -1.60756236       1.21716450       1.46817731       0.00000000
Si       1.98553923       0.78529203      -1.30879086       0.00000000
Si      -2.66598882      -2.60511309       0.08094590       0.00000000
Si       2.60931591       2.68857069       0.04075593       0.00000000
Si       2.44576431      -0.13398525       2.84491960       0.00000000
Si      -0.60105213      -0.95449626      -3.62425040       0.00000000
Si       2.45581524      -2.90763468       0.05917190       0.00000000
Si      -0.26611344       2.57540080       2.84042623       0.00000000
