10
Lattice="16.28999089631971 0.0 0.0 0.0 16.28999089631971 0.0 0.0 0.0 34.3005442915855" Properties=species:S:1:pos:R:3:initial_magmoms:R:1 pbc="T T T"
Si      -1.33154460       1.32695082      -1.38996173       0.00000000
Si       0.96422139       1.83808215       1.08911149       0.00000000
Si       1.39606929      -1.37088495      -1.36526533       0.00000000
Si      -1.66812858      -1.02949542       1.49481856       0.00000000
Si      -0.15425001      -0.56299869       3.34197250       0.00000000
Si       1.84539636       0.67697982       2.96394599       0.00000000
Si      -0.85700061       3.45629395       1.28321838       0.00000000
Si      -2.71720458       2.64435570      -0.03457497       0.00000000
Si      -2.67584427      -0.02005299      -2.74363347       0.00000000
Si       2.88308565      -2.53351854       0.11645041       0.00000000
