10
Lattice="16.28999089631971 0.0 0.0 0.0 16.28999089631971 0.0 0.0 0.0 34.3005442915855" Properties=species:S:1:pos:R:3:initial_magmoms:R:1 pbc="T T T"
Si       1.29226941      -1.33881788      -1.37245816       0.00000000
Si       1.36503684       1.33997881       1.34780634       0.00000000
Si      -1.34944731      -1.37283140       1.35202531       0.00000000
Si      -1.18589571       1.44972454      -1.45213836       0.00000000
Si      -1.80967239      -0.45355412      -2.80168516       0.00000000
Si       2.05822521       0.47638238      -2.78110482       0.00000000
Si      -0.22133223      -2.51010146      -2.66292081       0.00000000
Si       0.43574121       2.53289877      -2.79825510       0.00000000
Si      -2.69410536       2.69208465      -0.01810727       0.00000000
Si       0.00983916       2.69889387       2.70864690       0.00000000
