10
Lattice="16.28999089631971 0.0 0.0 0.0 16.28999089631971 0.0 0.0 0.0 34.3005442915855" Properties=species:S:1:pos:R:3:initial_magmoms:R:1 pbc="T T T"
Si      -1.35622395      -1.35725086      -1.35638148       0.00000000
Si       1.35757602       1.35762652      -1.35583267       0.00000000
Si       1.35731538      -1.35668498       1.35710179       0.00000000
Si      -1.35729909       1.35805006       1.35758200       0.00000000
Si      -0.00171045      -2.71409875      -2.71245426       0.00000000
Si       0.00420282       2.71072279      -2.71766794       0.00000000
Si      -2.71373481       0.00131786       2.71471810       0.00000000
Si       2.71409319       0.00005702       2.71451229       0.00000000
Si       0.00140094      -2.71408246       2.71468379       0.00000000
Si       2.71277370      -0.00128854      -2.71667323       0.00000000
