10
Lattice="16.28999089631971 0.0 0.0 0.0 16.28999089631971 0.0 0.0 0.0 34.3005442915855" Properties=species:S:1:pos:R:3:initial_magmoms:R:1 pbc="T T T"
Si      -1.38360744       1.22479737      -1.40646030       0.00000000
Si      -1.81514583      -1.01722044       1.06554700       0.00000000
Si       1.36643778       1.29383113       1.51557040       0.00000000
Si       1.32445845      -1.50575754      -1.37336026       0.00000000
Si      -2.62163115       2.48961650       0.17064530       0.00000000
Si       2.65080654       2.55669872      -0.04980442       0.00000000
Si      -0.03218904       2.56065719      -2.76599744       0.00000000
Si      -0.93397086      -2.17832277       2.94038150       0.00000000
Si       2.56204233      -2.78062923       0.27488472       0.00000000
Si       2.68438023      -0.15427443      -2.76462541       0.00000000
