10
Lattice="16.28999089631971 0.0 0.0 0.0 16.28999089631971 0.0 0.0 0.0 34.3005442915855" Properties=species:S:1:pos:R:3:initial_magmoms:R:1 pbc="T T T"
Si      -1.77424164      -1.60309957       0.05783075       0.00000000
Si       0.92020581       0.36258934       2.18446568       0.00000000
Si       1.76685317      -0.82387489      -1.89572354       0.00000000
Si      -0.90319905       1.74769546      -1.89153887       0.00000000
Si       0.12787650       0.14035953      -3.38481390       0.00000000
Si      -0.58235121       3.59964040       0.84636640       0.00000000
Si       3.03128134      -2.28214822       0.96497775       0.00000000
Si      -3.70025721      -0.82138904       1.22597074       0.00000000
Si       2.19676419      -1.45026679       3.02232555       0.00000000
Si      -1.68215427      -3.17288542       1.80520435       0.00000000
