10
Lattice="16.28999089631971 0.0 0.0 0.0 16.28999089631971 0.0 0.0 0.0 34.3005442915855" Properties=species:S:1:pos:R:3:initial_magmoms:R:1 pbc="T T T"
Si       2.04678378       0.84004272       0.74085787       0.00000000
Si      -1.80545328       1.24136316       0.82784410       0.00000000
Si       0.21621717       0.55089522      -2.34176807       0.00000000
Si       0.10362069      -2.35369160       0.60670837       0.00000000
Si      -0.40141818      -2.84149076      -1.65277265       0.00000000
Si      -3.24123759       0.20186568      -0.72250707       0.00000000
Si      -2.15889741      -1.31124726      -2.22065278       0.00000000
Si       3.38447949      -0.40900932      -0.77172838       0.00000000
Si      -2.04786477       0.33270696       3.08554149       0.00000000
Si       2.53804783       0.77387274      -2.60475049       0.00000000
