10
Lattice="16.28999089631971 0.0 0.0 0.0 16.28999089631971 0.0 0.0 0.0 34.3005442915855" Properties=species:S:1:pos:R:3:initial_magmoms:R:1 pbc="T T T"
Si      -0.53827047       2.18753523      -0.53237905       0.00000000
Si       2.32183066       0.22297752      -0.26298242       0.00000000
Si      -0.21621717      -0.55089522       2.34176807       0.00000000
Si      -1.38950442      -0.90692946      -1.77855282       0.00000000
Si      -2.37511458      -1.86214248       0.12111529       0.00000000
Si       2.07888975      -1.16662464      -2.10375646       0.00000000
Si       1.13534784      -3.07352227      -0.97046584       0.00000000
Si      -0.61763535      -3.39238598       0.68899542       0.00000000
Si       1.83056661       0.28914750       3.08262594       0.00000000
Si       0.60359337       2.38255911      -2.63798773       0.00000000
