10
Lattice="16.28999089631971 0.0 0.0 0.0 16.28999089631971 0.0 0.0 0.0 34.3005442915855" Properties=species:S:1:pos:R:3:initial_magmoms:R:1 pbc="T T T"
Si      -0.76595580      -1.81520026       1.40864666       0.00000000
Si       1.89372783       0.82838234       1.32339604       0.00000000
Si       0.90740580      -2.03068438      -1.32791201       0.00000000
Si      -1.62248400       2.05651639      -0.01715028       0.00000000
Si       0.98665339      -0.53633752      -3.18220047       0.00000000
Si      -2.05822521      -0.47638238       2.78110482       0.00000000
Si       0.66432249       2.24605054       2.75247414       0.00000000
Si       3.00792311       1.97632072      -0.46312621       0.00000000
Si      -3.24412092       0.97334216       1.32896645       0.00000000
Si      -2.27955744      -2.98648384       0.11818400       0.00000000
