10
Lattice="16.28999089631971 0.0 0.0 0.0 16.28999089631971 0.0 0.0 0.0 34.3005442915855" Properties=species:S:1:pos:R:3:initial_magmoms:R:1 pbc="T T T"
Si      -0.50503887      -0.48779916      -2.25948102       0.00000000
Si      -0.10362069       2.35369160      -0.60670837       0.00000000
Si       2.16350815      -1.07066907       0.67891105       0.00000000
Si      -2.04108813      -0.95645025       1.18930344       0.00000000
Si       1.94316309       3.19373432       0.13414950       0.00000000
Si      -2.26251810       1.04244434      -2.82736115       0.00000000
Si       2.79934920      -2.21207679      -1.30911531       0.00000000
Si      -0.72971055      -2.84119659      -2.48198877       0.00000000
Si       3.10973561      -0.19531710      -2.47200731       0.00000000
Si       3.28085880       1.94468228      -1.37843674       0.00000000
