10
Lattice="16.28999089631971 0.0 0.0 0.0 16.28999089631971 0.0 0.0 0.0 34.3005442915855" Properties=species:S:1:pos:R:3:initial_magmoms:R:1 pbc="T T T"
Si      -1.35514881       1.35635427      -1.36265848       0.00000000
Si       1.36073628      -1.36058967      -1.36258988       0.00000000
Si      -1.36205577      -1.36350558       1.37250275       0.00000000
Si       1.36055709       1.37578824       1.37919136       0.00000000
Si      -2.71497285       2.71174743      -0.00171503       0.00000000
Si       2.71492398      -2.71243161      -0.00613980       0.00000000
Si      -2.71124244      -2.71717200      -0.00394456       0.00000000
Si       2.71937606       2.71135647      -0.00277835       0.00000000
Si      -2.71290402      -0.00138465      -2.71965738       0.00000000
Si       0.00237834       2.71399545      -2.71917717       0.00000000
