10
Lattice="16.28999089631971 0.0 0.0 0.0 16.28999089631971 0.0 0.0 0.0 34.3005442915855" Properties=species:S:1:pos:R:3:initial_magmoms:R:1 pbc="T T T"
Si      -0.57959820      -1.08243792       1.99042740       0.00000000
Si      -1.91221794       1.22917824      -0.60760018       0.00000000
Si       0.69685362      -1.66239450      -1.54990526       0.00000000
Si       1.37300265       1.80639810       0.80640625       0.00000000
Si      -1.18584684       2.03320377      -2.71547271       0.00000000
Si      -0.44781210       0.64102779       3.55329827       0.00000000
Si       2.24095014      -2.87331165      -0.29007987       0.00000000
Si       2.92592835       0.66800403       2.14704377       0.00000000
Si      -0.19963395       2.75590962       2.44645339       0.00000000
Si       2.35025604       2.61737946      -1.22823458       0.00000000
