10
Lattice="16.28999089631971 0.0 0.0 0.0 16.28999089631971 0.0 0.0 0.0 34.3005442915855" Properties=species:S:1:pos:R:3:initial_magmoms:R:1 pbc="T T T"
Si      -0.44740485      -1.40463783      -1.84516451       0.00000000
Si       1.82900548      -0.89034624       1.31021292       0.00000000
Si      -1.99203894      -0.48679407       1.29045580       0.00000000
Si       0.31697082       2.16472923      -1.09607451       0.00000000
Si       3.77068607      -0.12448818       0.05244556       0.00000000
Si       0.09086562      -3.59217306      -1.31278547       0.00000000
Si      -1.77642450       2.70687672      -2.11504134       0.00000000
Si       1.29539709      -0.09140319       3.65304431       0.00000000
Si      -2.67928146      -1.23659019      -2.54451870       0.00000000
Si      -1.93080483      -2.90170512       1.85682670       0.00000000
