10
Lattice="16.28999089631971 0.0 0.0 0.0 16.28999089631971 0.0 0.0 0.0 34.3005442915855" Properties=species:S:1:pos:R:3:initial_magmoms:R:1 pbc="T T T"
Si      -1.56344904       0.41472711      -1.79024931       0.00000000
Si       1.08198180       1.64040300       1.47338897       0.00000000
Si      -1.49201739      -1.03928571       1.66889876       0.00000000
Si       1.99047510      -0.42280695      -1.54256494       0.00000000
Si       2.73975550      -2.12455809       0.07923430       0.00000000
Si      -2.72000646      -2.52446130       0.27958389       0.00000000
Si      -3.55144806      -0.74425752      -1.01636000       0.00000000
Si       2.35240632       3.09449727       0.00788913       0.00000000
Si      -0.18510327      -2.42382168       3.05208270       0.00000000
Si       2.52053541       0.30281481       3.03468545       0.00000000
