10
Lattice="16.28999089631971 0.0 0.0 0.0 16.28999089631971 0.0 0.0 0.0 34.3005442915855" Properties=species:S:1:pos:R:3:initial_magmoms:R:1 pbc="T T T"
Si       1.51360164       1.17128358       1.29046266       0.00000000
Si      -1.11806415      -1.63637937       1.22919842       0.00000000
Si       1.59791868      -0.95167809      -1.52992659       0.00000000
Si      -1.58834016       2.05654734      -0.13876434       0.00000000
Si      -2.47480938      -0.22369428       2.64247768       0.00000000
Si       3.18696324       0.95579946      -1.44609602       0.00000000
Si       0.22133223       2.51010146       2.66292081       0.00000000
Si       2.27955744       2.98648384      -0.11818400       0.00000000
Si      -2.71989243      -2.68069869      -0.18805425       0.00000000
Si      -0.93838545       2.56436514      -2.78999209       0.00000000
