10
Lattice="16.28999089631971 0.0 0.0 0.0 16.28999089631971 0.0 0.0 0.0 34.3005442915855" Properties=species:S:1:pos:R:3:initial_magmoms:R:1 pbc="T T T"
Si       1.35785769      -1.35835794       1.36169807       0.00000000
Si      -1.35850455       1.35778779       1.36241838       0.00000000
Si      -1.35128808      -1.37425698      -1.37457107       0.00000000
Si       1.36409504       1.35457866      -1.38686782       0.00000000
Si       2.71449948       2.71303434       0.00003430       0.00000000
Si      -2.71748151       2.71394658       0.00662001       0.00000000
Si      -2.71505430      -2.71700910       0.00219524       0.00000000
Si       2.71384625      -2.71878471      -0.00024010       0.00000000
Si      -0.00076563       2.71358820       2.71931437       0.00000000
Si       2.71415250      -0.00148239       2.71883416       0.00000000
