10
Lattice="16.28999089631971 0.0 0.0 0.0 16.28999089631971 0.0 0.0 0.0 34.3005442915855" Properties=species:S:1:pos:R:3:initial_magmoms:R:1 pbc="T T T"
Si       1.35674484       1.35754344      -1.35802791       0.00000000
Si      -1.35837423      -1.35718506      -1.35768490       0.00000000
Si       1.35862349      -1.35982404       1.35871392       0.00000000
Si      -1.36164852       1.35896067       1.36025745       0.00000000
Si       2.71383159      -2.71391400      -0.00157783       0.00000000
Si      -2.71443528       2.71570590      -0.00113192       0.00000000
Si       2.71408734       0.00026064      -2.71605582       0.00000000
Si      -2.71590138      -2.71482624      -0.00116622       0.00000000
Si      -0.00061902      -2.71503801      -2.71581571       0.00000000
Si      -0.00083079       2.71533123      -2.71557561       0.00000000
