10
Lattice="16.28999089631971 0.0 0.0 0.0 16.28999089631971 0.0 0.0 0.0 34.3005442915855" Properties=species:S:1:pos:R:3:initial_magmoms:R:1 pbc="T T T"
Si       0.67329828      -1.12247874       2.14982212       0.00000000
Si      -1.83397707       1.57669281       0.91980391       0.00000000
Si       1.66203612       0.97438635      -1.74569288       0.00000000
Si      -0.79628778      -1.63380555      -1.92769167       0.00000000
Si       2.79584034      -2.28890790       1.30122618       0.00000000
Si      -1.25030637      -2.64515391       2.52908345       0.00000000
Si      -2.09354193      -3.19407804      -0.61679273       0.00000000
Si       3.14764407       2.36043729      -0.40975453       0.00000000
Si      -2.71515204       2.73779514      -0.95503059       0.00000000
Si      -3.20730552      -1.99612773       1.24092578       0.00000000
