10
Lattice="16.28999089631971 0.0 0.0 0.0 16.28999089631971 0.0 0.0 0.0 34.3005442915855" Properties=species:S:1:pos:R:3:initial_magmoms:R:1 pbc="T T T"
Si       1.21487562      -1.06710903      -1.71310734       0.00000000
Si      -1.16545176       1.90725016      -0.76490257       0.00000000
Si       0.90995940       1.39755235       1.70329738       0.00000000
Si      -1.77122799      -1.31945742       0.94288819       0.00000000
Si      -1.06769547      -1.27470879       3.14025089       0.00000000
Si      -0.84302379       1.07868863       3.36275864       0.00000000
Si      -3.24252450       1.12093186      -1.36862678       0.00000000
Si       2.17683337      -2.95735176      -0.72267857       0.00000000
Si      -3.72557187      -0.03479544       0.58983249       0.00000000
Si       1.85350131       3.30444998       0.57000676       0.00000000
