10
Lattice="16.28999089631971 0.0 0.0 0.0 16.28999089631971 0.0 0.0 0.0 34.3005442915855" Properties=species:S:1:pos:R:3:initial_magmoms:R:1 pbc="T T T"
Si       1.11710304       1.63418022      -1.34108343       0.00000000
Si      -1.68657605      -1.08942633      -1.32005718       0.00000000
Si      -0.67097207       1.18441332       1.99680730       0.00000000
Si       1.72463859      -1.83001860      -0.08211555       0.00000000
Si      -1.62864781      -0.66433878       2.97584828       0.00000000
Si       2.40753168       0.28851219      -2.73859129       0.00000000
Si      -0.34586439      -2.43116847      -2.73756227       0.00000000
Si      -3.09746924      -2.35680462       0.28905085       0.00000000
Si       2.72854242       2.98080936       0.06674890       0.00000000
Si      -0.33588188       3.00858381      -2.69153091       0.00000000
