10
Lattice="16.28999089631971 0.0 0.0 0.0 16.28999089631971 0.0 0.0 0.0 34.3005442915855" Properties=species:S:1:pos:R:3:initial_magmoms:R:1 pbc="T T T"
Si       1.29042864      -1.34566803      -1.39750786       0.00000000
Si      -1.11710304      -1.63418022       1.34108343       0.00000000
Si      -1.45298492       1.37440359      -1.35044748       0.00000000
Si       1.61143938       1.34662914       1.40783233       0.00000000
Si       0.60753555      -3.46419882       1.25896788       0.00000000
Si       2.53679283      -2.76291432       0.00439047       0.00000000
Si       2.62904310       0.00786807      -2.75008198       0.00000000
Si      -1.78807511      -0.44976690       3.33789073       0.00000000
Si      -0.08037486      -2.70847314      -2.74438808       0.00000000
Si      -0.08281836       2.71953405      -2.74761234       0.00000000
