10
Lattice="16.28999089631971 0.0 0.0 0.0 16.28999089631971 0.0 0.0 0.0 34.3005442915855" Properties=species:S:1:pos:R:3:initial_magmoms:R:1 pbc="T T T"
Si       1.75682763      -0.11057652      -1.52719829       0.00000000
Si       0.68194827      -1.27115757       1.85494017       0.00000000
Si      -1.82581350      -1.32056514      -0.75766515       0.00000000
Si      -0.73149105       2.25473148      -0.23207761       0.00000000
Si      -1.22551951       1.82837331      -2.49670371       0.00000000
Si       0.98756496       1.45002177      -3.12879450       0.00000000
Si      -0.65874316      -0.27225477       3.55076003       0.00000000
Si      -2.48625215      -0.16410546      -2.79813707       0.00000000
Si      -2.33024282       2.52371196       1.50311929       0.00000000
Si       3.02441769      -0.65710602       2.19835741       0.00000000
