10
Lattice="16.28999089631971 0.0 0.0 0.0 16.28999089631971 0.0 0.0 0.0 34.3005442915855" Properties=species:S:1:pos:R:3:initial_magmoms:R:1 pbc="T T T"
Si      -1.35514066      -1.35190710       1.39266462       0.00000000
Si       1.36155078       1.36208902       1.39256172       0.00000000
Si      -1.48572130       1.32660126      -1.41048376       0.00000000
Si       1.27249335      -1.35547461      -1.59650601       0.00000000
Si       2.71293660      -2.69540856       0.00093641       0.00000000
Si      -2.70554511      -2.71036278       0.00576249       0.00000000
Si       2.71798650       2.72105621       0.00882210       0.00000000
Si      -2.71512665       2.74426946       0.01859434       0.00000000
Si       0.00337203      -2.70775638       2.75326507       0.00000000
Si      -2.71269944       0.00718907       2.75446559       0.00000000
