10
Lattice="16.28999089631971 0.0 0.0 0.0 16.28999089631971 0.0 0.0 0.0 34.3005442915855" Properties=species:S:1:pos:R:3:initial_magmoms:R:1 pbc="T T T"
Si      -1.49499846       1.23743727       1.31086463       0.00000000
Si      -1.35593073      -1.35711990      -1.36101206       0.00000000
Si       1.35470898       1.36350558      -1.36094346       0.00000000
Si       1.52669880      -1.21585302       1.36924419       0.00000000
Si      -0.18428877       2.60642348       2.72538557       0.00000000
Si      -2.72609729      -2.70225036       0.03615279       0.00000000
Si      -2.71357517       0.00506619      -2.71879986       0.00000000
Si       2.71502172       0.00135207      -2.71753074       0.00000000
Si       0.00058644      -2.71305063      -2.72048059       0.00000000
Si       2.70467757       2.73244780       0.01859091       0.00000000
