10
Lattice="10.86 0.0 0.0 0.0 10.86 0.0 0.0 0.0 10.86" Properties=species:S:1:pos:R:3:initial_magmoms:R:1 pbc="T T T"
Si      -0.93240702      -1.44750768      -1.14078870       0.00000000
Si      -0.93240702       1.26749232       1.57421130       0.00000000
Si       1.78259298       1.26749232      -1.14078870       0.00000000
Si      -2.28990702      -0.09000768      -2.49828870       0.00000000
Si      -2.28990702       2.62499232       0.21671130       0.00000000
Si      -2.28990702      -2.80500768       0.21671130       0.00000000
Si       0.42509298       2.62499232      -2.49828870       0.00000000
Si      -2.28990702      -0.09000768       2.93171130       0.00000000
Si       0.42509298      -2.80500768      -2.49828870       0.00000000
Si       2.88809754       0.00866628       2.69738508       0.00000000
