10
Lattice="16.28999089631971 0.0 0.0 0.0 16.28999089631971 0.0 0.0 0.0 34.56954931742767" Properties=species:S:1:pos:R:3:initial_magmoms:R:1 pbc="T T T"
Si      -1.36058436      -1.35196249       1.38272398       0.00000000
Si       1.35375059       1.36018242       1.38472901       0.00000000
Si      -1.30796766       1.43914005      -1.48377083       0.00000000
Si       1.34779660      -1.49027925      -1.44870346       0.00000000
Si      -2.71412046      -2.71348136      -0.01188156       0.00000000
Si       2.70179044       2.72720664       0.01516913       0.00000000
Si      -2.70594288       2.72373687       0.01114523       0.00000000
Si       2.71092913      -2.72134794       0.01940390       0.00000000
Si      -0.00165939      -2.71011065       2.74483412       0.00000000
Si       2.71156444       0.00474039       2.74500697       0.00000000
