10
Lattice="16.28999089631971 0.0 0.0 0.0 16.28999089631971 0.0 0.0 0.0 34.56954931742767" Properties=species:S:1:pos:R:3:initial_magmoms:R:1 pbc="T T T"
Si       1.24191702       1.50116097      -1.34887000       0.00000000
Si      -1.46460132      -1.35917474      -1.28892637       0.00000000
Si       0.26523378       0.40688022       2.36563015       0.00000000
Si       1.34744364      -1.61466710       1.64430153       0.00000000
Si       1.98182511       2.21705760       2.15489406       0.00000000
Si      -0.05400135      -2.62508693      -2.78074153       0.00000000
Si       2.66137875       0.09753800      -2.77970444       0.00000000
Si       1.83796812       3.41078880       0.05935595       0.00000000
Si      -2.75483122       0.08110139      -2.77199543       0.00000000
Si       2.96240166      -2.58085958       0.24008565       0.00000000
