10
Lattice="16.28999089631971 0.0 0.0 0.0 16.28999089631971 0.0 0.0 0.0 34.56954931742767" Properties=species:S:1:pos:R:3:initial_magmoms:R:1 pbc="T T T"
Si       0.28470033      -1.85861311      -1.47235250       0.00000000
Si       1.95274746       1.23649408       0.60299699       0.00000000
Si      -0.29610333      -1.59782650       1.78755782       0.00000000
Si      -1.94365764       1.11016350      -0.94271214       0.00000000
Si      -0.73360386      -3.29343631       0.13067297       0.00000000
Si      -1.53938871       3.42350803      -0.48006760       0.00000000
Si       2.75898843      -2.14403020      -1.46899925       0.00000000
Si       1.53554427       2.33632972       2.67623773       0.00000000
Si      -1.64154330      -1.67859232      -3.07793611       0.00000000
Si      -3.89996772      -0.26307210      -0.38894222       0.00000000
