10
Lattice="16.28999089631971 0.0 0.0 0.0 16.28999089631971 0.0 0.0 0.0 34.56954931742767" Properties=species:S:1:pos:R:3:initial_magmoms:R:1 pbc="T T T"
Si       0.46789767       2.30475807       0.19863674       0.00000000
Si      -2.24125965       0.10021608       0.79993982       0.00000000
Si       0.41720319      -1.09983564      -2.07324074       0.00000000
Si       1.76363685      -0.71250831       1.48293079       0.00000000
Si       0.22160916       2.29659678       2.55538251       0.00000000
Si       2.70695817       2.37216609      -0.38728288       0.00000000
Si      -1.97918613       1.55828511       2.70648610       0.00000000
Si       3.65855481       0.34953453       0.40598501       0.00000000
Si       2.42882271      -2.32221606      -1.89461978       0.00000000
Si       1.67506812      -3.10444136       1.57682173       0.00000000
