10
Lattice="16.28999089631971 0.0 0.0 0.0 16.28999089631971 0.0 0.0 0.0 34.56954931742767" Properties=species:S:1:pos:R:3:initial_magmoms:R:1 pbc="T T T"
Si       1.79328465      -0.95045375      -1.13872159       0.00000000
Si       1.42478856       1.22579481       1.40248191       0.00000000
Si      -1.28091528      -1.46801963       1.33471518       0.00000000
Si      -1.86152346       0.62163943      -1.43415312       0.00000000
Si       0.66293784      -0.49578356      -3.16875037       0.00000000
Si      -2.63832840       2.44269527      -0.00656822       0.00000000
Si      -2.15023113      -3.06263144      -0.27804304       0.00000000
Si       0.06563241       2.59966571       2.76538715       0.00000000
Si       2.21669433       2.25053843      -2.11804290       0.00000000
Si       3.12772887       2.20481240       0.08186935       0.00000000
