10
Lattice="16.28999089631971 0.0 0.0 0.0 16.28999089631971 0.0 0.0 0.0 34.56954931742767" Properties=species:S:1:pos:R:3:initial_magmoms:R:1 pbc="T T T"
Si       1.35016081       1.36439664      -1.38579030       0.00000000
Si      -1.36951224      -1.35073062      -1.38184937       0.00000000
Si      -1.28612531       1.46275566       1.42084384       0.00000000
Si       1.29022990      -1.44027613       1.48306906       0.00000000
Si       2.68224298       2.71814451      -0.01932439       0.00000000
Si       2.70082987      -2.70618832      -0.00874610       0.00000000
Si      -2.72459439      -2.71079839       0.00162477       0.00000000
Si       2.70514672       0.00623418      -2.74499660       0.00000000
Si      -0.00911100      -2.70861553      -2.74389037       0.00000000
Si      -2.73127329       2.72371569      -0.00853868       0.00000000
