10
Lattice="16.28999089631971 0.0 0.0 0.0 16.28999089631971 0.0 0.0 0.0 34.56954931742767" Properties=species:S:1:pos:R:3:initial_magmoms:R:1 pbc="T T T"
Si       1.01110401       1.94890302      -0.84698900       0.00000000
Si      -2.35572948       0.18487521      -0.13219403       0.00000000
Si       0.39964257      -0.36789336       2.33254707       0.00000000
Si       0.80493777      -1.29342600      -1.89230362       0.00000000
Si      -0.79234560       3.37820391      -0.39907110       0.00000000
Si      -2.38969413       2.10914775      -1.68291574       0.00000000
Si      -0.91165356      -3.10360338      -1.68156753       0.00000000
Si       0.81601497       1.83075165       3.15115446       0.00000000
Si      -3.14727687       0.73927278       2.05695847       0.00000000
Si      -1.80146223      -0.86731218       3.28224226       0.00000000
