10
Lattice="16.28999089631971 0.0 0.0 0.0 16.28999089631971 0.0 0.0 0.0 34.56954931742767" Properties=species:S:1:pos:R:3:initial_magmoms:R:1 pbc="T T T"
Si       0.49865319      -2.30542011       0.24789838       0.00000000
Si       0.19653885       0.48333570       2.38312235       0.00000000
Si       1.49061645       0.56038903      -2.11804290       0.00000000
Si      -2.64588859       1.65722731      -1.33020243       0.00000000
Si      -1.72442519      -2.69129763       1.35021821       0.00000000
Si      -1.75977123      -0.88989989       2.93689227       0.00000000
Si       0.04654053       3.84886762      -0.56866940       0.00000000
Si       2.42489682      -2.48544090       1.85348199       0.00000000
Si       1.44796923      -3.25111977      -1.72847843       0.00000000
Si       2.14019649      -0.62682780       3.32583449       0.00000000
