10
Lattice="16.28999089631971 0.0 0.0 0.0 16.28999089631971 0.0 0.0 0.0 34.56954931742767" Properties=species:S:1:pos:R:3:initial_magmoms:R:1 pbc="T T T"
Si       2.20079529       0.73831167      -0.15110358       0.00000000
Si      -1.05319737       2.09065860      -0.50094762       0.00000000
Si      -0.24752655      -0.91012230       2.21006709       0.00000000
Si      -0.26207352      -1.45806903      -1.90654628       0.00000000
Si       2.44708380       0.74647296      -2.50784936       0.00000000
Si      -2.59338429      -0.60922971       2.42353418       0.00000000
Si       1.97918613      -1.55828511      -2.70648610       0.00000000
Si      -1.01206512       2.11216140      -2.90221900       0.00000000
Si      -1.62758277      -3.26023499      -1.19465515       0.00000000
Si      -1.53841131      -0.15827364      -3.52305388       0.00000000
