10
Lattice="16.28999089631971 0.0 0.0 0.0 16.28999089631971 0.0 0.0 0.0 34.56954931742767" Properties=species:S:1:pos:R:3:initial_magmoms:R:1 pbc="T T T"
Si       1.78932618       1.40919903       0.36107914       0.00000000
Si       0.28002510      -0.34886664      -2.26389191       0.00000000
Si       0.45796077      -1.99228329       1.15590267       0.00000000
Si      -2.24741727       0.92168820      -0.04262428       0.00000000
Si       1.54619793      -0.09272268       2.99265299       0.00000000
Si       0.57449943       3.34469538       0.85663391       0.00000000
Si      -0.67720788       1.51554015      -3.30733977       0.00000000
Si       2.53472400      -0.44017209      -2.76421728       0.00000000
Si      -2.80420947       0.95397498      -2.40441721       0.00000000
Si       3.02334255       1.62821808      -1.72018174       0.00000000
