10
Lattice="16.28999089631971 0.0 0.0 0.0 16.28999089631971 0.0 0.0 0.0 34.56954931742767" Properties=species:S:1:pos:R:3:initial_magmoms:R:1 pbc="T T T"
Si      -0.40426893      -2.31334453      -0.46264454       0.00000000
Si      -0.44266446       0.31283316       2.33973754       0.00000000
Si      -1.34581464       1.60658496      -1.22528379       0.00000000
Si       2.20110480       0.49941882      -0.94969519       0.00000000
Si      -0.55426725       1.05218739      -3.41443629       0.00000000
Si       2.61747720       2.69806383      -0.13108780       0.00000000
Si       1.53938871      -3.42350803       0.48006760       0.00000000
Si       1.80146223       0.86731218      -3.28224226       0.00000000
Si      -2.78044236      -0.22429701       2.75467608       0.00000000
Si       0.08368173       2.58326820       2.96057243       0.00000000
