10
Lattice="16.28999089631971 0.0 0.0 0.0 16.28999089631971 0.0 0.0 0.0 34.56954931742767" Properties=species:S:1:pos:R:3:initial_magmoms:R:1 pbc="T T T"
Si      -1.35728280      -1.35549090      -1.35758153       0.00000000
Si       1.35808101       1.35635765      -1.35692471       0.00000000
Si      -1.35711990       1.35789974       1.35723583       0.00000000
Si       1.35751086      -1.35725022       1.35758153       0.00000000
Si       2.71314837      -0.00022806      -2.71070359       0.00000000
Si       2.71448415      -2.71467963      -0.00010371       0.00000000
Si      -2.71482950      -2.71464705      -0.00020742       0.00000000
Si      -2.71433917       0.00061902       2.71516306       0.00000000
Si      -0.00008145       2.71546874       2.71405683       0.00000000
Si       2.71495656       2.71512828      -0.00006914       0.00000000
