10
Lattice="16.28999089631971 0.0 0.0 0.0 16.28999089631971 0.0 0.0 0.0 34.56954931742767" Properties=species:S:1:pos:R:3:initial_magmoms:R:1 pbc="T T T"
Si       1.27358478      -1.40346495      -1.39664514       0.00000000
Si      -1.46412891       1.30461723      -1.39166712       0.00000000
Si      -1.01540457      -1.85948721       1.15738916       0.00000000
Si       1.55227410       1.34884458       1.62916006       0.00000000
Si      -2.55093255      -0.65461365       2.57785273       0.00000000
Si       2.65432518       2.68976800       0.02527035       0.00000000
Si       2.66361048      -2.68978851       0.10087400       0.00000000
Si       2.61268794      -0.05971914      -2.77033609       0.00000000
Si      -0.06268392       2.31503706       3.03337594       0.00000000
Si      -0.10459809       2.66150564      -2.76729397       0.00000000
