10
Lattice="16.28999089631971 0.0 0.0 0.0 16.28999089631971 0.0 0.0 0.0 34.56954931742767" Properties=species:S:1:pos:R:3:initial_magmoms:R:1 pbc="T T T"
Si      -1.01830419      -1.43482320       1.60302547       0.00000000
Si      -0.28470033       1.85861311       1.47235250       0.00000000
Si       2.47428810      -0.28541709       0.00335325       0.00000000
Si      -1.92624363       0.18002079      -1.60558362       0.00000000
Si      -0.58080366       0.26078661       3.25991032       0.00000000
Si       0.84760128      -2.09642526      -2.78174405       0.00000000
Si       2.78435196      -0.95552253      -2.21003252       0.00000000
Si      -2.22835797       2.96877661       0.52964036       0.00000000
Si      -3.15859842      -1.97113887       0.65156723       0.00000000
Si      -0.97692759      -0.76567887      -3.58196042       0.00000000
