10
Lattice="16.28999089631971 0.0 0.0 0.0 16.28999089631971 0.0 0.0 0.0 34.56954931742767" Properties=species:S:1:pos:R:3:initial_magmoms:R:1 pbc="T T T"
Si      -0.94931604       0.94569966       1.97637681       0.00000000
Si       1.12485708       1.78996149      -1.11089309       0.00000000
Si      -1.36339155      -1.17968922      -1.56641629       0.00000000
Si       1.82452887      -1.33074639       0.80021637       0.00000000
Si      -2.75555450      -2.26830105       0.08497200       0.00000000
Si       0.62376039      -2.82471858       2.13010768       0.00000000
Si       0.97692759       0.76567887       3.58196042       0.00000000
Si       2.73981510       0.82376901      -2.51510897       0.00000000
Si       0.17213643      -2.38456278      -2.98687987       0.00000000
Si       0.04264722       3.81150881      -0.38956447       0.00000000
