10
Lattice="16.28999089631971 0.0 0.0 0.0 16.28999089631971 0.0 0.0 0.0 34.56954931742767" Properties=species:S:1:pos:R:3:initial_magmoms:R:1 pbc="T T T"
Si      -1.97161128       0.20932650       1.19759357       0.00000000
Si      -0.43750053      -1.69560981      -1.65688486       0.00000000
Si       0.29610333       1.59782650      -1.78755782       0.00000000
Si       1.44948420      -0.34557606       1.97713734       0.00000000
Si       0.58080366      -0.26078661      -3.25991032       0.00000000
Si      -1.71367542      -1.74465900       2.57785273       0.00000000
Si      -1.77512130       2.23220634       2.40051085       0.00000000
Si       2.24885079       2.83432058      -1.18456084       0.00000000
Si      -0.03934035      -0.59937426       3.77198934       0.00000000
Si       2.25077301      -2.59436169       1.72650797       0.00000000
