10
Lattice="16.28999089631971 0.0 0.0 0.0 16.28999089631971 0.0 0.0 0.0 34.56954931742767" Properties=species:S:1:pos:R:3:initial_magmoms:R:1 pbc="T T T"
Si       1.32172173      -1.59329232      -1.08289174       0.00000000
Si      -1.35917244      -1.29171555       1.41209916       0.00000000
Si      -0.96555717       1.85085351      -1.08133611       0.00000000
Si       1.36594908       1.43252631       1.45185071       0.00000000
Si      -0.33099651      -2.77705404      -2.37161069       0.00000000
Si       2.78236458      -0.51872247      -2.54283376       0.00000000
Si      -3.17158155      -2.19421413       0.16519280       0.00000000
Si      -0.00273672       2.68167326       2.85030384       0.00000000
Si      -2.70431919      -0.01705563       2.83155331       0.00000000
Si       2.73181671      -0.01552437       2.82091971       0.00000000
