10
Lattice="16.28999089631971 0.0 0.0 0.0 16.28999089631971 0.0 0.0 0.0 34.56954931742767" Properties=species:S:1:pos:R:3:initial_magmoms:R:1 pbc="T T T"
Si       0.05782950       0.29721105       2.28252491       0.00000000
Si       2.11558230      -0.71099334      -0.76962231       0.00000000
Si      -1.99632321      -1.39953906       0.02627287       0.00000000
Si       0.41796882       2.15311446      -1.11134249       0.00000000
Si       2.28177288       1.07121411      -2.28072729       0.00000000
Si      -2.03851431       1.37639097       2.49198192       0.00000000
Si      -1.96002909      -2.25084794      -2.26683032       0.00000000
Si       2.19401865       1.14230367       2.94715943       0.00000000
Si       1.93341123      -2.74846020      -1.87875235       0.00000000
Si      -3.54193470      -0.29015748       1.59856599       0.00000000
