10
Lattice="16.28999089631971 0.0 0.0 0.0 16.28999089631971 0.0 0.0 0.0 34.56954931742767" Properties=species:S:1:pos:R:3:initial_magmoms:R:1 pbc="T T T"
Si      -2.11350370       0.97600232      -0.08562882       0.00000000
Si       0.32498550      -1.05695645       2.05730417       0.00000000
Si      -0.19648998      -2.02287984      -1.20291728       0.00000000
Si       1.36550925       1.80216596      -0.71189113       0.00000000
Si       1.73578095      -2.83158060       1.37147850       0.00000000
Si      -2.17871257      -1.82130738      -2.40172078       0.00000000
Si       1.77512130      -2.23220634      -2.40051085       0.00000000
Si      -3.62049227      -0.69631605      -0.78911954       0.00000000
Si       1.62758277       3.26023499       1.19465515       0.00000000
Si      -2.64041026       1.97567075       1.99317762       0.00000000
