10
Lattice="16.28999089631971 0.0 0.0 0.0 16.28999089631971 0.0 0.0 0.0 34.56954931742767" Properties=species:S:1:pos:R:3:initial_magmoms:R:1 pbc="T T T"
Si      -1.61701056       1.12963005      -1.31958957       0.00000000
Si       1.05523362       1.73594385       1.27855550       0.00000000
Si       1.86380406      -1.08190035      -1.16938480       0.00000000
Si      -0.41796882      -2.15311446       1.11134249       0.00000000
Si       1.69761348      -2.86410780       0.34172019       0.00000000
Si      -1.71248625      -0.58305168      -2.93754909       0.00000000
Si      -0.18143802       2.96816832      -1.99943471       0.00000000
Si       1.92917583       3.13509195      -0.47865025       0.00000000
Si      -3.47105691       1.66674393       0.18473977       0.00000000
Si      -0.36013932      -1.85590341       3.39386740       0.00000000
