10
Lattice="16.28999089631971 0.0 0.0 0.0 16.28999089631971 0.0 0.0 0.0 34.56954931742767" Properties=species:S:1:pos:R:3:initial_magmoms:R:1 pbc="T T T"
Si      -2.23906050      -0.06740802       0.58591962       0.00000000
Si       0.80622468       1.96380837       0.98741059       0.00000000
Si       0.01089801      -0.21830229      -2.36072127       0.00000000
Si       0.95159664      -2.02263156       0.79326789       0.00000000
Si       2.10724182      -1.29748221      -2.57017829       0.00000000
Si      -2.70695817      -2.37216609       0.38728288       0.00000000
Si       1.44917469      -3.13931106      -1.18843263       0.00000000
Si      -0.94332132      -3.08467440       1.87021366       0.00000000
Si      -0.24348663       3.74551083      -0.15729154       0.00000000
Si       0.47930067       1.84720455       3.33986973       0.00000000
