10
Lattice="16.28999089631971 0.0 0.0 0.0 16.28999089631971 0.0 0.0 0.0 34.56954931742767" Properties=species:S:1:pos:R:3:initial_magmoms:R:1 pbc="T T T"
Si       2.29926834       0.28510758      -0.27942582       0.00000000
Si      -0.80622468      -1.96380837      -0.98741059       0.00000000
Si      -1.04971131       1.78170246      -1.14470213       0.00000000
Si      -0.32692401      -0.11660382       2.35245915       0.00000000
Si      -3.04528518      -2.03121639      -0.40149097       0.00000000
Si       0.09821241       3.72850407      -0.45573062       0.00000000
Si      -3.37808988       1.69521885      -0.54149772       0.00000000
Si       3.34146996      -1.76847498      -0.66802234       0.00000000
Si      -2.58162291      -0.02529837       2.85278451       0.00000000
Si       3.37046616       0.64368306       1.81127255       0.00000000
