10
Lattice="16.28999089631971 0.0 0.0 0.0 16.28999089631971 0.0 0.0 0.0 34.56954931742767" Properties=species:S:1:pos:R:3:initial_magmoms:R:1 pbc="T T T"
Si       0.74064114       0.43269661      -2.18490045       0.00000000
Si       1.86152346      -0.62163943       1.43415312       0.00000000
Si      -0.77680494       1.82105584       1.42758491       0.00000000
Si      -1.50887754      -1.95156873      -0.44172995       0.00000000
Si       2.52446130      -1.11742299      -1.73459725       0.00000000
Si      -2.15808454       0.47981380       2.73311300       0.00000000
Si       0.58060818      -2.08965906       2.76886831       0.00000000
Si      -3.32940721      -0.85440465       0.95671281       0.00000000
Si      -2.45257679       2.82834799      -0.08839439       0.00000000
Si      -0.28870767      -3.68427087       1.15611008       0.00000000
