10
Lattice="16.28999089631971 0.0 0.0 0.0 16.28999089631971 0.0 0.0 0.0 34.56954931742767" Properties=species:S:1:pos:R:3:initial_magmoms:R:1 pbc="T T T"
Si      -1.35744570       1.35630540      -1.35384802       0.00000000
Si      -1.35610992      -1.35814617       1.35675186       0.00000000
Si       1.35912357       1.35676152       1.35647530       0.00000000
Si       1.36114353      -1.35881406      -1.36335465       0.00000000
Si      -0.01633887       2.71363424      -2.70054705       0.00000000
Si      -2.71251306       2.71289111      -0.00006914       0.00000000
Si      -2.71308321      -0.00071676       2.71443710       0.00000000
Si       0.00211770       2.71419293       2.71384942       0.00000000
Si      -2.71329498      -2.71577106      -0.00013828       0.00000000
Si       0.00224802      -2.71573848       2.71447167       0.00000000
