10
Lattice="16.28999089631971 0.0 0.0 0.0 16.28999089631971 0.0 0.0 0.0 34.56954931742767" Properties=species:S:1:pos:R:3:initial_magmoms:R:1 pbc="T T T"
Si      -1.33910316      -1.34374581       1.37369095       0.00000000
Si       1.35747828      -1.35198855      -1.35699385       0.00000000
Si      -1.35692442       1.36101321      -1.35702842       0.00000000
Si       1.36471104       1.35527913       1.37756274       0.00000000
Si      -2.61268794       0.05971914       2.77033609       0.00000000
Si       2.71278999      -2.70933651       0.00611881       0.00000000
Si       0.00042354      -2.71098180      -2.71402226       0.00000000
Si      -2.71394658      -2.71376739       0.00262729       0.00000000
Si      -2.71490769       0.00403992      -2.71405683       0.00000000
Si       2.71505430       0.00390960      -2.71426425       0.00000000
