10
Lattice="16.28999089631971 0.0 0.0 0.0 16.28999089631971 0.0 0.0 0.0 34.56954931742767" Properties=species:S:1:pos:R:3:initial_magmoms:R:1 pbc="T T T"
Si       1.26706878      -1.44230031      -1.47276733       0.00000000
Si      -1.45411056       1.26314289      -1.47746879       0.00000000
Si      -0.88389540      -1.87258437       1.35581848       0.00000000
Si       1.02405456       1.66060260       1.52610818       0.00000000
Si       2.67190209       2.71219282       0.01068200       0.00000000
Si       0.99131166       0.40094577       3.67318952       0.00000000
Si      -2.77718436       2.65735090      -0.05942509       0.00000000
Si       2.61004896      -0.08887824      -2.85274994       0.00000000
Si      -0.10441890       2.62722891      -2.85178200       0.00000000
Si      -2.76789906      -2.72220561       0.01617856       0.00000000
