10
Lattice="16.28999089631971 0.0 0.0 0.0 16.28999089631971 0.0 0.0 0.0 34.56954931742767" Properties=species:S:1:pos:R:3:initial_magmoms:R:1 pbc="T T T"
Si      -2.28773502       0.07926714      -0.27717880       0.00000000
Si       0.69107067      -0.26055855       2.20564219       0.00000000
Si       0.82881891       1.91998080      -1.03138308       0.00000000
Si       0.65624265      -1.86706206      -1.27444172       0.00000000
Si       1.96604010       0.94138281      -2.80756752       0.00000000
Si      -2.83638222      -2.22809733      -0.62138800       0.00000000
Si       2.70521514      -1.25002944      -2.15721022       0.00000000
Si       3.04362360       0.04215852       2.14711591       0.00000000
Si      -2.66061312       1.80008965      -1.89731621       0.00000000
Si      -0.93330297       3.35516075      -1.57841193       0.00000000
