10
Lattice="16.28999089631971 0.0 0.0 0.0 16.28999089631971 0.0 0.0 0.0 34.56954931742767" Properties=species:S:1:pos:R:3:initial_magmoms:R:1 pbc="T T T"
Si       1.79090631      -0.77372613      -1.33891396       0.00000000
Si      -0.34878519       2.24702631      -0.67258553       0.00000000
Si      -2.11452345      -1.03182489       0.31202493       0.00000000
Si       1.29821526      -0.32923719       2.01772201       0.00000000
Si       0.25024698      -2.52775188      -1.94000962       0.00000000
Si       2.42180172       1.69754832       1.71959405       0.00000000
Si       1.96100649       2.78747964      -0.49686841       0.00000000
Si      -2.07550890      -2.21542371      -1.69919801       0.00000000
Si      -1.41618744       3.20388529       1.18549422       0.00000000
Si       2.73932640       1.31531976      -2.17615435       0.00000000
