10
Lattice="16.28999089631971 0.0 0.0 0.0 16.28999089631971 0.0 0.0 0.0 34.56954931742767" Properties=species:S:1:pos:R:3:initial_magmoms:R:1 pbc="T T T"
Si      -1.06740225       0.95685898       1.85807974       0.00000000
Si       0.34878519      -2.24702631       0.67258553       0.00000000
Si       2.30979168       0.54045333       0.17571712       0.00000000
Si      -1.01732679       0.34671636      -2.13508570       0.00000000
Si       3.08811159      -0.93170655      -1.50356882       0.00000000
Si       1.30621365       1.10787868       3.18116085       0.00000000
Si      -0.92875806       2.73864941      -2.22897665       0.00000000
Si       2.77058691      -0.54947799       2.39217958       0.00000000
Si       2.13969150      -3.02075244      -0.66632844       0.00000000
Si      -1.76573826      -3.27885120       0.98461045       0.00000000
