10
Lattice="16.28999089631971 0.0 0.0 0.0 16.28999089631971 0.0 0.0 0.0 34.56954931742767" Properties=species:S:1:pos:R:3:initial_magmoms:R:1 pbc="T T T"
Si       1.35624024      -1.35676152       1.35955200       0.00000000
Si      -1.34565174      -1.35207000      -1.37496657       0.00000000
Si      -1.35896067       1.35830907       1.35931001       0.00000000
Si       1.35062506       1.35684297      -1.39699084       0.00000000
Si      -2.64938931       0.13387122      -2.74323009       0.00000000
Si       2.71404173      -2.71562445      -0.00138278       0.00000000
Si      -0.00029322      -2.71402803       2.71658041       0.00000000
Si       2.71440174       0.00047241       2.71658041       0.00000000
Si       2.71186376       2.71933857      -0.00200503       0.00000000
Si      -0.00084708       2.71630863       2.71609644       0.00000000
