10
Lattice="16.28999089631971 0.0 0.0 0.0 16.28999089631971 0.0 0.0 0.0 34.56954931742767" Properties=species:S:1:pos:R:3:initial_magmoms:R:1 pbc="T T T"
Si      -1.35653346      -1.35726651       1.35702842       0.00000000
Si       1.35816150       1.35723393       1.35702842       0.00000000
Si      -1.35624024       1.35676152      -1.35955200       0.00000000
Si       1.35780149      -1.35886293      -1.36093478       0.00000000
Si      -2.71396287      -2.71393029      -0.00006914       0.00000000
Si      -2.71423980       0.00034209       2.71412597       0.00000000
Si       0.00087637      -2.71484253       2.71436796       0.00000000
Si       0.00045584       2.71515204       2.71416054       0.00000000
Si       2.71561535      -2.71430496      -0.00065682       0.00000000
Si       2.71587599       0.00019548       2.71426425       0.00000000
