10
Lattice="16.28999089631971 0.0 0.0 0.0 16.28999089631971 0.0 0.0 0.0 34.56954931742767" Properties=species:S:1:pos:R:3:initial_magmoms:R:1 pbc="T T T"
Si      -1.35648057       1.35614250      -1.36017425       0.00000000
Si       1.35659679      -1.35918873      -1.36045080       0.00000000
Si       1.35974402       1.35708732       1.36971545       0.00000000
Si      -1.36358301      -1.35575154       1.37541943       0.00000000
Si       0.08156497      -2.61671157       2.80480195       0.00000000
Si       2.71868189       2.71117728      -0.00280014       0.00000000
Si      -2.71641864      -2.71454931      -0.00159020       0.00000000
Si      -2.71617429       2.71546155      -0.00172848       0.00000000
Si       0.00006890       2.71396287      -2.71792863       0.00000000
Si      -2.71462674      -0.00084708      -2.71796319       0.00000000
