10
Lattice="16.28999089631971 0.0 0.0 0.0 16.28999089631971 0.0 0.0 0.0 34.56954931742767" Properties=species:S:1:pos:R:3:initial_magmoms:R:1 pbc="T T T"
Si       0.85423131       1.63290960      -1.51445823       0.00000000
Si       1.55403898      -1.87493013      -0.15583962       0.00000000
Si      -1.82889459      -0.96901065      -1.46305328       0.00000000
Si       1.37389764       0.78183855       2.21473398       0.00000000
Si       0.47019456      -1.11470841       3.30222347       0.00000000
Si       2.22943052       0.28352745      -2.92171623       0.00000000
Si       2.48685813       2.71772586      -0.22968021       0.00000000
Si      -1.80928143      -1.82944845       2.82955376       0.00000000
Si      -0.49389651      -2.42931141      -2.91601225       0.00000000
Si       2.58492068      -2.18667186       1.89928667       0.00000000
