10
Lattice="16.28999089631971 0.0 0.0 0.0 16.28999089631971 0.0 0.0 0.0 34.56954931742767" Properties=species:S:1:pos:R:3:initial_magmoms:R:1 pbc="T T T"
Si       0.25544349      -0.34239951       2.30475314       0.00000000
Si       1.24040924      -1.86939153      -0.77318297       0.00000000
Si      -2.33955351      -0.16477335      -0.43944836       0.00000000
Si       0.49782240       2.22814620      -0.74974480       0.00000000
Si      -0.68155731      -2.56635918      -2.04800495       0.00000000
Si      -2.24381718      -0.81249633      -2.66438036       0.00000000
Si      -0.43104969       3.43007127       1.13526463       0.00000000
Si       1.96833440       1.12112667       2.86146147       0.00000000
Si      -1.79517429       0.21882357       3.25175190       0.00000000
Si      -2.31055731       2.24738469       2.03984654       0.00000000
