10
Lattice="16.28999089631971 0.0 0.0 0.0 16.28999089631971 0.0 0.0 0.0 34.56954931742767" Properties=species:S:1:pos:R:3:initial_magmoms:R:1 pbc="T T T"
Si      -1.34315937       1.31002551      -1.32788973       0.00000000
Si       1.35066906       1.36578618       1.33970906       0.00000000
Si      -1.36715454      -1.34597754       1.34565503       0.00000000
Si       1.21062393      -1.31655780      -1.53983921       0.00000000
Si       0.47939841       2.17015380      -2.74656748       0.00000000
Si      -2.54081646      -0.26766099      -2.67098211       0.00000000
Si      -0.65407608      -2.07971172      -3.02723781       0.00000000
Si       2.31834393       0.49899528      -2.95439973       0.00000000
Si      -0.00850338      -2.70573642       2.70095497       0.00000000
Si       2.70801518       0.00939933       2.70074755       0.00000000
