10
Lattice="16.28999089631971 0.0 0.0 0.0 16.28999089631971 0.0 0.0 0.0 34.56954931742767" Properties=species:S:1:pos:R:3:initial_magmoms:R:1 pbc="T T T"
Si      -1.34912151      -1.35035955      -1.37161677       0.00000000
Si       1.36925595       1.36410831      -1.37075254       0.00000000
Si      -1.43070183       1.21836168       1.45693447       0.00000000
Si       1.35159759      -1.35935163       1.40708515       0.00000000
Si       0.00619020       2.34603693       2.90228813       0.00000000
Si      -2.70523143      -2.69990460       0.00114080       0.00000000
Si      -2.69171073       2.72401380       0.00891895       0.00000000
Si      -2.70352098       0.00661374      -2.73037367       0.00000000
Si       2.72679680      -2.70873378      -0.00017285       0.00000000
Si       2.71088473       2.72601747      -0.01355127       0.00000000
