10
Lattice="16.28999089631971 0.0 0.0 0.0 16.28999089631971 0.0 0.0 0.0 34.56954931742767" Properties=species:S:1:pos:R:3:initial_magmoms:R:1 pbc="T T T"
Si       1.35586557       1.35668007      -1.35744325       0.00000000
Si       1.35439947      -1.35697329       1.35875690       0.00000000
Si      -1.35899325      -1.35809730      -1.35723583       0.00000000
Si      -1.36129014       1.35822762       1.36314723       0.00000000
Si       2.71309950      -0.00055386      -2.71505935       0.00000000
Si      -0.00141723       2.71360449      -2.71481736       0.00000000
Si       2.71376739       2.71526607      -0.00017285       0.00000000
Si      -0.00195480      -2.71573848      -2.71464452       0.00000000
Si       2.71409319      -2.71629234       0.00031113       0.00000000
Si      -2.71599912      -0.00112401      -2.71488650       0.00000000
