10
Lattice="16.28999089631971 0.0 0.0 0.0 16.28999089631971 0.0 0.0 0.0 34.56954931742767" Properties=species:S:1:pos:R:3:initial_magmoms:R:1 pbc="T T T"
Si       0.72408954      -1.96099020      -1.13847960       0.00000000
Si      -2.39371776      -0.35528490       0.16707473       0.00000000
Si       1.41206022       0.31030821       2.02650268       0.00000000
Si       0.49013093       1.23911514      -2.13971802       0.00000000
Si       1.80943197       2.64010401      -0.64852511       0.00000000
Si      -0.13318704       1.10785032       3.64781545       0.00000000
Si      -0.17961354      -3.85753716      -0.05099011       0.00000000
Si      -0.22123449       3.90839454      -0.62045462       0.00000000
Si      -3.58518465       1.61723862       0.52455863       0.00000000
Si       2.83502105       2.23976097       1.64322988       0.00000000
