10
Lattice="16.28999089631971 0.0 0.0 0.0 16.28999089631971 0.0 0.0 0.0 34.56954931742767" Properties=species:S:1:pos:R:3:initial_magmoms:R:1 pbc="T T T"
Si      -0.14327055       1.55929509       1.78524166       0.00000000
Si      -2.19240594      -0.88866837      -0.27178595       0.00000000
Si       1.42612434      -1.82954619       0.59051737       0.00000000
Si       0.73567269       1.67686002      -1.57294994       0.00000000
Si       2.73488479      -0.50424066       2.01333168       0.00000000
Si      -2.02587327      -1.32015789      -2.53273945       0.00000000
Si      -2.19224304       0.94226247       2.66801017       0.00000000
Si      -3.44867445       0.86840361       0.65640697       0.00000000
Si      -1.41198462       2.91543759      -2.03154984       0.00000000
Si       1.70533494       1.23093756       3.21102895       0.00000000
