10
Lattice="16.28999089631971 0.0 0.0 0.0 16.28999089631971 0.0 0.0 0.0 34.56954931742767" Properties=species:S:1:pos:R:3:initial_magmoms:R:1 pbc="T T T"
Si       1.86470001       0.76315392       1.48739860       0.00000000
Si      -0.64485594      -1.85046255       1.62565267       0.00000000
Si      -1.88674038       1.81205073       0.35625569       0.00000000
Si       0.69121728      -0.33932070      -2.57864783       0.00000000
Si      -0.15363099       3.04572501      -1.75336852       0.00000000
Si      -2.08700964      -0.61672311       3.00630939       0.00000000
Si       0.65407608       2.07971172       3.02723781       0.00000000
Si      -2.06407332      -3.17853738       0.24295493       0.00000000
Si      -0.68908329       3.38973723       1.69934808       0.00000000
Si      -3.58696026       0.56044116       1.50746969       0.00000000
