10
Lattice="16.28999089631971 0.0 0.0 0.0 16.28999089631971 0.0 0.0 0.0 34.56954931742767" Properties=species:S:1:pos:R:3:initial_magmoms:R:1 pbc="T T T"
Si       2.27063052       0.32003334      -0.70075973       0.00000000
Si      -0.25119180      -2.30519790      -0.68509971       0.00000000
Si      -0.22944465       0.25837569       2.42996412       0.00000000
Si      -1.21114195       1.73231118      -1.27406145       0.00000000
Si       0.25039359       2.56728771       2.68647032       0.00000000
Si      -2.75638922       2.52985329       0.34725132       0.00000000
Si       2.10373947       0.33373323      -3.14112928       0.00000000
Si      -2.55610367      -2.69661402      -1.00500650       0.00000000
Si       1.17830457      -1.32851466       3.50075651       0.00000000
Si       3.71210004      -1.21371903       0.40909628       0.00000000
