10
Lattice="16.28999089631971 0.0 0.0 0.0 16.28999089631971 0.0 0.0 0.0 34.56954931742767" Properties=species:S:1:pos:R:3:initial_magmoms:R:1 pbc="T T T"
Si       0.47983824       2.30891202       0.25650620       0.00000000
Si       1.40774922      -1.58689035       1.07079239       0.00000000
Si      -2.19896171      -0.29691783       0.88833421       0.00000000
Si       0.22944465      -0.25837569      -2.42996412       0.00000000
Si      -3.45858596       0.31682421      -1.00998452       0.00000000
Si      -1.21818412       3.59678313      -0.65989850       0.00000000
Si       3.63910455      -1.24193331       0.36626458       0.00000000
Si       0.88140303      -3.85732539       0.44995751       0.00000000
Si      -2.52694457       2.27147760      -2.08271280       0.00000000
Si       2.50007517       0.06165765      -3.13072384       0.00000000
