10
Lattice="16.28999089631971 0.0 0.0 0.0 16.28999089631971 0.0 0.0 0.0 34.56954931742767" Properties=species:S:1:pos:R:3:initial_magmoms:R:1 pbc="T T T"
Si       2.23135533       0.34495704      -0.70452781       0.00000000
Si      -1.40774922       1.58689035      -1.07079239       0.00000000
Si      -0.04113225      -0.02150280       2.40127138       0.00000000
Si      -0.52634619      -2.27043504      -0.62083488       0.00000000
Si       1.01206512      -2.11216140       2.90221900       0.00000000
Si       3.45914892      -1.36568844       0.39436964       0.00000000
Si       0.74999160      -3.57023043       0.99567272       0.00000000
Si      -3.60671093       1.28997252      -0.18245818       0.00000000
Si      -1.17830457       1.32851466      -3.50075651       0.00000000
Si       3.12634422       2.36074680       0.25436289       0.00000000
