10
Lattice="16.28999089631971 0.0 0.0 0.0 16.28999089631971 0.0 0.0 0.0 34.56954931742767" Properties=species:S:1:pos:R:3:initial_magmoms:R:1 pbc="T T T"
Si      -1.35759652      -1.35531171      -1.35685557       0.00000000
Si       1.35782363       1.35975888      -1.35661358       0.00000000
Si      -1.35546225       1.36065483       1.36020882       0.00000000
Si       1.36101647      -1.35809730       1.35827292       0.00000000
Si       2.71261406      -2.71336014      -0.00069139       0.00000000
Si       0.00010914      -2.71322982      -2.71398769       0.00000000
Si      -2.71414599      -2.71313208       0.00089881       0.00000000
Si       2.71512272       0.00265527      -2.71405683       0.00000000
Si      -2.71513968       0.00260640      -2.71447167       0.00000000
Si       0.00042354       2.71736748      -2.71422968       0.00000000
