10
Lattice="16.28999089631971 0.0 0.0 0.0 16.28999089631971 0.0 0.0 0.0 34.56954931742767" Properties=species:S:1:pos:R:3:initial_magmoms:R:1 pbc="T T T"
Si      -0.57509143      -2.10781197      -0.90129779       0.00000000
Si      -1.89614527       1.14706035      -0.84211469       0.00000000
Si       1.91899621       0.58277475      -1.60108957       0.00000000
Si      -0.58957324       0.33449886       2.50498008       0.00000000
Si       0.40135954      -2.17116378      -3.11478727       0.00000000
Si      -3.71562424       0.80151687       0.67877348       0.00000000
Si      -2.87077597      -2.58352884      -0.14650583       0.00000000
Si       1.05421387       2.14267257      -3.15430029       0.00000000
Si       3.72746314       1.59923817      -0.27023032       0.00000000
Si      -2.05806787       3.53481597      -0.05247661       0.00000000
