10
Lattice="16.28999089631971 0.0 0.0 0.0 16.28999089631971 0.0 0.0 0.0 34.56954931742767" Properties=species:S:1:pos:R:3:initial_magmoms:R:1 pbc="T T T"
Si      -1.11582265      -1.61824860       1.33300257       0.00000000
Si       1.46460132       1.35917474       1.28892637       0.00000000
Si       1.41059997      -1.26591219      -1.49181516       0.00000000
Si      -1.29022990       1.44027613      -1.48306906       0.00000000
Si       2.87472888      -2.57052942      -0.10014804       0.00000000
Si      -2.57635521       2.90303180      -0.06222522       0.00000000
Si      -2.72915234      -2.76535782      -0.04048096       0.00000000
Si       0.06040332      -2.62703943      -2.86754572       0.00000000
Si      -2.65974214       0.08954551      -2.86491843       0.00000000
Si       2.70651834       2.86033571      -0.05994363       0.00000000
