10
Lattice="16.28999089631971 0.0 0.0 0.0 16.28999089631971 0.0 0.0 0.0 34.56954931742767" Properties=species:S:1:pos:R:3:initial_magmoms:R:1 pbc="T T T"
Si       0.99072359      -1.76528214       1.15483101       0.00000000
Si      -0.03534604       1.80139774       1.58667406       0.00000000
Si       2.22307838       0.38587752      -1.10231984       0.00000000
Si      -2.21623074      -0.85397067      -0.86085140       0.00000000
Si       1.72442519       2.69129763      -1.35021821       0.00000000
Si       1.44242900      -3.22846623      -0.70196966       0.00000000
Si      -1.61382654      -1.55983266      -2.96565415       0.00000000
Si      -2.11751334       2.84343809       1.40788025       0.00000000
Si      -0.66929583       0.40904190      -3.76275927       0.00000000
Si       1.92096404       3.17463334       1.03290414       0.00000000
