10
Lattice="16.2900001489832 0.0 0.0 0.0 16.2900001489832 0.0 0.0 0.0 28.95459006505858" Properties=species:S:1:pos:R:3:initial_magmoms:R:1 pbc="T T T"
Si      -0.16408917       0.26637408       1.47957955       0.00000000
H       -1.26162793      -0.05017320      -1.47451250       0.00000000
H       -1.92925730       1.11135268      -1.37293980       0.00000000
Si      -0.97202431      -1.25416711      -2.30504596       0.00000000
Si       1.92920843       0.98318296       2.36451869       0.00000000
Si      -1.79194889       2.00515241       1.78887248       0.00000000
Si      -1.09037116      -1.67677859       2.57913011       0.00000000
Si       1.30660462      -1.09964017      -2.82935568       0.00000000
Si       1.98811307      -2.37892646       1.21368955       0.00000000
Si       2.42554518      -2.18388629      -1.09488887       0.00000000
