10
Lattice="16.2900001489832 0.0 0.0 0.0 16.2900001489832 0.0 0.0 0.0 28.95459006505858" Properties=species:S:1:pos:R:3:initial_magmoms:R:1 pbc="T T T"
Si      -1.38776140       1.34164441       1.28871089       0.00000000
Si       1.34574949       1.38891799      -1.31178770       0.00000000
Si      -1.41612229      -1.35505108      -1.28752376       0.00000000
Si       1.28335879      -1.34978941       1.42511597       0.00000000
Si      -0.01249443       2.67455738       2.61416516       0.00000000
Si      -0.04445541      -2.71217588      -2.60707129       0.00000000
Si       2.68556942       0.02594997      -2.66011610       0.00000000
Si      -2.69922044      -0.00941562       2.66492256       0.00000000
Si       2.67916745      -2.69782765       0.07710607       0.00000000
Si      -0.04585635       2.76806199      -2.61410725       0.00000000
