10
Lattice="16.2900001489832 0.0 0.0 0.0 16.2900001489832 0.0 0.0 0.0 28.95459006505858" Properties=species:S:1:pos:R:3:initial_magmoms:R:1 pbc="T T T"
Si       1.33926607       1.33805703       1.40044666       0.00000000
Si      -1.33094188      -1.35379708       1.39398978       0.00000000
Si       1.38836413      -1.36498831      -1.33735461       0.00000000
Si      -1.38784285       1.35873393      -1.34838630       0.00000000
Si       2.69060303       2.68149660       0.03248705       0.00000000
Si      -0.00610875      -2.70793592      -2.68039879       0.00000000
Si       2.71220357      -2.68744310       0.09242305       0.00000000
Si      -2.70459614      -2.70539468       0.06624810       0.00000000
Si      -2.70387938       2.72126049       0.05290004       0.00000000
Si      -0.05211171       2.68480347      -2.74140321       0.00000000
