10
Lattice="16.2900001489832 0.0 0.0 0.0 16.2900001489832 0.0 0.0 0.0 28.95459006505858" Properties=species:S:1:pos:R:3:initial_magmoms:R:1 pbc="T T T"
Si       1.09957501       1.67959676      -1.17216577       0.00000000
Si       1.38644191      -1.34798122       1.31175006       0.00000000
Si      -1.43277067       1.30140811       1.31350181       0.00000000
Si      -1.19747791      -1.34832331      -1.49755456       0.00000000
Si      -0.65345707       3.38387286      -1.02037713       0.00000000
Si       2.53177553       0.47320821      -2.67273451       0.00000000
Si      -0.02358792      -2.75274939       2.53775979       0.00000000
Si      -0.00042354       2.72909631       2.56813316       0.00000000
Si      -2.72073953       2.63990855      -0.12756813       0.00000000
Si       0.35709309      -2.60617196      -2.73307587       0.00000000
