10
Lattice="16.2900001489832 0.0 0.0 0.0 16.2900001489832 0.0 0.0 0.0 28.95459006505858" Properties=species:S:1:pos:R:3:initial_magmoms:R:1 pbc="T T T"
Si       1.32295978       1.40307400      -1.32328268       0.00000000
Si      -1.35695701       1.38020284       1.32197972       0.00000000
Si       1.38891799      -1.36269109       1.31937381       0.00000000
Si      -1.33978735      -1.38054493      -1.35565391       0.00000000
Si       2.68459202      -0.01731627      -2.57727702       0.00000000
Si      -2.69876432       0.01930365       2.67740199       0.00000000
Si      -2.75413404      -0.02065572      -2.62322795       0.00000000
Si       0.02969667      -2.71155197       2.67242180       0.00000000
Si       0.01268991       2.72751617       2.67711244       0.00000000
Si      -2.69918786      -2.71666703      -0.00541451       0.00000000
