10
Lattice="16.2900001489832 0.0 0.0 0.0 16.2900001489832 0.0 0.0 0.0 28.95459006505858" Properties=species:S:1:pos:R:3:initial_magmoms:R:1 pbc="T T T"
Si       1.22776102       0.05115060      -1.97493468       0.00000000
Si      -0.95952988       2.07844112       0.43032312       0.00000000
Si      -1.81617212      -1.19866708      -0.84611103       0.00000000
Si       1.25709931      -1.05409333       1.78151802       0.00000000
Si       1.03384486      -3.06481692       0.61638531       0.00000000
Si      -0.47868165      -0.77498047       3.34164924       0.00000000
Si      -0.88819597      -3.30713067      -0.69601044       0.00000000
Si      -0.01330893       3.25252659      -1.34893644       0.00000000
Si       1.99449875       2.24598377      -2.02783472       0.00000000
Si      -3.49729150      -0.76626532       0.63494521       0.00000000
