10
Lattice="16.2900001489832 0.0 0.0 0.0 16.2900001489832 0.0 0.0 0.0 28.95459006505858" Properties=species:S:1:pos:R:3:initial_magmoms:R:1 pbc="T T T"
H       -0.64947905      -1.45862290      -0.61583518       0.00000000
Si      -1.11894056       1.08424612      -1.73446681       0.00000000
Si       2.34081112      -0.01710450      -0.06882506       0.00000000
Si      -0.43743212      -0.19504017       2.30857842       0.00000000
Si      -0.19695050      -2.86181094       0.13579703       0.00000000
Si       0.64133242      -2.24073839       2.21464973       0.00000000
H       -2.42554518       2.18388629       1.09488887       0.00000000
Si       2.68852117       1.37974672       1.76020744       0.00000000
Si      -3.39756949       0.92971918      -1.21015709       0.00000000
Si       0.99231513       1.29779173       3.42257732       0.00000000
