10
Lattice="16.2900001489832 0.0 0.0 0.0 16.2900001489832 0.0 0.0 0.0 28.95459006505858" Properties=species:S:1:pos:R:3:initial_magmoms:R:1 pbc="T T T"
Si       1.43343856      -1.33279894      -1.27753442       0.00000000
Si       1.35347095       1.34503273       1.35808609       0.00000000
Si      -1.36515088      -1.38727270       1.32145854       0.00000000
Si      -1.32383944       1.32245479      -1.42977766       0.00000000
Si       0.06027300      -2.66554901      -2.57082883       0.00000000
Si      -0.01837512       2.68965284       2.68933128       0.00000000
Si       2.68325624       2.70348289      -0.01514325       0.00000000
Si      -2.71629236      -0.02850750       2.67491189       0.00000000
Si      -2.71220357       2.68744310      -0.09242305       0.00000000
Si       2.71305065      -0.01931994       2.71153945       0.00000000
