10
Lattice="16.2900001489832 0.0 0.0 0.0 16.2900001489832 0.0 0.0 0.0 28.95459006505858" Properties=species:S:1:pos:R:3:initial_magmoms:R:1 pbc="T T T"
Si      -1.34822557       1.35182566      -1.35976546       0.00000000
Si       1.35298225       1.35899326       1.34789408       0.00000000
Si       1.36624231      -1.35022924      -1.34395625       0.00000000
Si      -1.35708733      -1.35698959       1.35009463       0.00000000
Si       0.07995132      -2.75353131       2.58411030       0.00000000
Si      -0.00164529      -2.69772176      -2.69454311       0.00000000
Si       2.72466542       0.01819593       2.67598321       0.00000000
Si      -2.70026300       2.70603325      -0.00775983       0.00000000
Si       2.72645732       0.01674612      -2.68081863       0.00000000
Si      -2.70467759      -2.70767495      -0.01294270       0.00000000
