10
Lattice="16.2900001489832 0.0 0.0 0.0 16.2900001489832 0.0 0.0 0.0 28.95459006505858" Properties=species:S:1:pos:R:3:initial_magmoms:R:1 pbc="T T T"
Si      -1.34969167      -1.38168035       1.32638082       0.00000000
Si      -1.35420400       1.34381098      -1.36069201       0.00000000
Si       1.36295173      -1.35802238      -1.34192943       0.00000000
Si       1.34705269       1.36518346       1.35553809       0.00000000
Si       0.07123617      -2.66165082       2.68354036       0.00000000
Si      -2.68643279       2.70340697       0.00332978       0.00000000
Si      -2.72572427      -0.05097141       2.66527002       0.00000000
Si      -0.00558747      -2.71400541      -2.68102131       0.00000000
Si       0.01340667       2.70629030      -2.69075005       0.00000000
Si       2.71920319       0.00386073      -2.69471683       0.00000000
