10
Lattice="16.2900001489832 0.0 0.0 0.0 16.2900001489832 0.0 0.0 0.0 28.95459006505858" Properties=species:S:1:pos:R:3:initial_magmoms:R:1 pbc="T T T"
Si       0.98173315      -1.00463689      -0.61538991       0.00000000
Si      -1.63874143       1.75611089      -0.57880370       0.00000000
Si      -2.53102619      -0.03528414       0.70884601       0.00000000
Si       0.13643038       2.61705368       0.72711925       0.00000000
Si      -1.19635390      -1.52668252       1.97715839       0.00000000
Si       1.56344905       1.20943477       1.99481490       0.00000000
Si       0.14509014      -2.88609933       0.60111466       0.00000000
Si       0.20196994      -0.60251824      -2.92094773       0.00000000
Si       2.90080920      -0.26821485       0.71742815       0.00000000
H        1.01359639       1.63093852      -2.42698243       0.00000000
