10
Lattice="16.2900001489832 0.0 0.0 0.0 16.2900001489832 0.0 0.0 0.0 28.95459006505858" Properties=species:S:1:pos:R:3:initial_magmoms:R:1 pbc="T T T"
Si       1.21824115      -1.38777655       1.39949116       0.00000000
Si      -1.30411877      -1.39980102      -1.32583068       0.00000000
Si      -0.90278692       1.13191555       1.83479446       0.00000000
Si       1.41056089       1.32842182      -1.33582001       0.00000000
H        0.02408477       0.54326010       2.88352972       0.00000000
Si      -2.61204288       0.05078733      -2.60895334       0.00000000
Si       2.62965563      -0.09575262       2.73985704       0.00000000
Si       0.12450284      -2.80097919      -2.58523953       0.00000000
Si      -2.73006393      -2.67523668       0.01352179       0.00000000
Si       2.70154340      -2.71076517       0.15470437       0.00000000
