10
Lattice="16.2900001489832 0.0 0.0 0.0 16.2900001489832 0.0 0.0 0.0 28.95459006505858" Properties=species:S:1:pos:R:3:initial_magmoms:R:1 pbc="T T T"
Si       1.17242389      -0.91393417      -0.33184856       0.00000000
Si      -2.54477495       0.04455315       0.43443467       0.00000000
Si      -2.01834731       0.83768068      -1.68394105       0.00000000
Si      -1.47217618       0.65348965       2.39182287       0.00000000
Si       0.08767278      -2.47350620      -1.65614464       0.00000000
Si       1.87348034      -1.68371813       1.74984170       0.00000000
Si      -0.31685679       2.58616784      -1.64936927       0.00000000
Si       0.64078345      -0.19481211       3.01767633       0.00000000
Si       2.75576304       0.30152790      -1.55292153       0.00000000
Si      -1.21130812      -1.00849762      -2.94401585       0.00000000
