10
Lattice="16.2900001489832 0.0 0.0 0.0 16.2900001489832 0.0 0.0 0.0 28.95459006505858" Properties=species:S:1:pos:R:3:initial_magmoms:R:1 pbc="T T T"
Si      -1.21922506      -1.32704352      -1.45281248       0.00000000
Si       1.78800671       0.87548651      -1.19356032       0.00000000
Si       1.28814805      -1.38632186       1.34617417       0.00000000
Si      -1.36655182       1.44136854       1.24343460       0.00000000
H        1.31865922       1.26172241      -2.57670372       0.00000000
Si      -2.57523725       0.13577064      -2.58576650       0.00000000
Si      -2.78415651       0.02657062       2.49159459       0.00000000
Si       2.66944232      -2.63513884      -0.07690629       0.00000000
Si       2.65025270       0.00581879       2.65987867       0.00000000
Si      -0.09014886      -2.71834816       2.63535413       0.00000000
