10
Lattice="16.2900001489832 0.0 0.0 0.0 16.2900001489832 0.0 0.0 0.0 28.95459006505858" Properties=species:S:1:pos:R:3:initial_magmoms:R:1 pbc="T T T"
Si      -1.36259335       1.34051552       1.37571944       0.00000000
Si       1.41760468       1.41479792      -1.24815999       0.00000000
Si       1.34226343      -1.32494130       1.42051219       0.00000000
Si      -1.30849426      -1.39053575      -1.41269445       0.00000000
Si       2.78415651      -0.02657062      -2.49159459       0.00000000
Si      -2.66483225      -2.70596939       0.00587778       0.00000000
Si       0.07082892       2.81884932      -2.55607936       0.00000000
Si      -2.75595852       2.67546474       0.02959159       0.00000000
Si       0.00254124       2.68111737       2.75841693       0.00000000
Si       2.69400764      -2.74491878       0.14375954       0.00000000
