10
Lattice="16.2900001489832 0.0 0.0 0.0 16.2900001489832 0.0 0.0 0.0 28.95459006505858" Properties=species:S:1:pos:R:3:initial_magmoms:R:1 pbc="T T T"
Si       1.35104374       1.29715642      -1.38955973       0.00000000
Si       1.29898090      -1.46500858       1.28787121       0.00000000
Si      -1.44086680      -1.33578001      -1.29024549       0.00000000
Si      -0.80703919       1.84617830       1.26007481       0.00000000
H        1.21130812       1.00849762       2.94401585       0.00000000
Si       2.38373201       0.09456345       2.61216730       0.00000000
Si       2.64209141       2.66344760       0.00920756       0.00000000
Si      -0.08599491       2.69369813      -2.62357541       0.00000000
Si      -0.06972120      -2.72596862      -2.61677108       0.00000000
Si      -1.33346683       1.05305077       3.37845052       0.00000000
