10
Lattice="16.2900001489832 0.0 0.0 0.0 16.2900001489832 0.0 0.0 0.0 28.95459006505858" Properties=species:S:1:pos:R:3:initial_magmoms:R:1 pbc="T T T"
Si       1.37815030       1.35484322       1.32374595       0.00000000
Si       1.37917657      -1.35063747      -1.32716259       0.00000000
Si      -1.36796905      -1.34553870       1.35055790       0.00000000
Si      -1.35944938       1.36044210      -1.34424580       0.00000000
Si       0.00211770       2.68555216       2.66263515       0.00000000
Si       0.00371412      -2.68633603       2.67864704       0.00000000
Si       0.00550602      -2.68778584      -2.67815481       0.00000000
Si       2.72225450       0.02251816      -2.68365618       0.00000000
Si      -0.00581553       2.71686154      -2.69017096       0.00000000
Si      -2.71871957       2.70627304       0.00651478       0.00000000
