10
Lattice="16.2900001489832 0.0 0.0 0.0 16.2900001489832 0.0 0.0 0.0 28.95459006505858" Properties=species:S:1:pos:R:3:initial_magmoms:R:1 pbc="T T T"
H       -1.45601650       0.36877302       0.26345782       0.00000000
Si      -0.04183272      -2.29131884       0.25477144       0.00000000
Si       1.07259877       0.60893650       1.95738820       0.00000000
Si       0.52642764       0.79312753      -2.11837572       0.00000000
H        2.54477495      -0.04455315      -0.43443467       0.00000000
Si      -2.25232058      -2.87450085      -0.11541300       0.00000000
Si       1.58897548       2.82105336       1.70614922       0.00000000
Si       0.10953396      -2.64140723       2.55078357       0.00000000
Si       1.33346683      -1.05305077      -3.37845052       0.00000000
Si      -1.97486930       2.01844505       2.54623770       0.00000000
