10
Lattice="16.2900001489832 0.0 0.0 0.0 16.2900001489832 0.0 0.0 0.0 28.95459006505858" Properties=species:S:1:pos:R:3:initial_magmoms:R:1 pbc="T T T"
Si      -0.95620672      -0.53242236      -1.06535519       0.00000000
H        0.13053177       1.17563302       1.79411326       0.00000000
H       -1.68142124       1.72527392       0.34267757       0.00000000
H        0.44026983       2.57038283      -0.13041147       0.00000000
Si       0.98678305       2.29034144       1.23395776       0.00000000
Si      -2.68037291       0.95246002       1.17546949       0.00000000
Si       1.45368703      -2.29988738       1.53468014       0.00000000
Si      -2.95187835      -1.03298149      -0.01838616       0.00000000
Si       2.97261552      -1.02508084       0.22381898       0.00000000
Si       0.18881739      -1.97125292      -2.47141904       0.00000000
