10
Lattice="16.2900001489832 0.0 0.0 0.0 16.2900001489832 0.0 0.0 0.0 28.95459006505858" Properties=species:S:1:pos:R:3:initial_magmoms:R:1 pbc="T T T"
Si      -1.39408192       1.30293937       1.30295655       0.00000000
Si       1.39147552       1.49351608      -1.10424120       0.00000000
Si       1.16193313      -1.61489287       1.25567371       0.00000000
Si      -1.66837295      -1.35417142      -1.05047253       0.00000000
H        0.51885279      -1.64967202      -2.28277988       0.00000000
Si       3.04746807      -1.40950855      -0.58884950       0.00000000
Si      -2.38874444      -0.50347503       2.43510998       0.00000000
Si      -0.29693412      -1.37645614       3.16922466       0.00000000
Si      -2.54672161       2.45698814      -0.35498327       0.00000000
Si       1.68531455       3.27310086       0.38602259       0.00000000
