10
Lattice="16.2900001489832 0.0 0.0 0.0 16.2900001489832 0.0 0.0 0.0 28.95459006505858" Properties=species:S:1:pos:R:3:initial_magmoms:R:1 pbc="T T T"
Si      -1.18377802       1.36194175      -1.49790781       0.00000000
Si       1.29792205       1.46023561       1.29867127       0.00000000
Si       1.40941081      -1.37440360      -1.31089011       0.00000000
Si      -1.40256901      -1.37712403       1.34320343       0.00000000
H       -3.08113950       1.55418004       0.58126340       0.00000000
Si      -2.47419038       2.74084400      -0.15276442       0.00000000
Si       2.54026262       0.10169847       2.68498809       0.00000000
Si      -0.02409291      -2.73101852       2.67137943       0.00000000
Si       0.05681952      -2.71972955      -2.68397468       0.00000000
Si      -2.67968873      -2.72461656      -0.06792747       0.00000000
