10
Lattice="16.2900001489832 0.0 0.0 0.0 16.2900001489832 0.0 0.0 0.0 28.95459006505858" Properties=species:S:1:pos:R:3:initial_magmoms:R:1 pbc="T T T"
Si      -1.51814656      -1.11356812      -1.36962594       0.00000000
Si      -1.33962445       1.22696281       1.46754023       0.00000000
Si       0.89169832       1.82205281      -1.17255203       0.00000000
Si       1.42187266      -1.42083010       1.22645563       0.00000000
Si      -0.15980490      -2.16456635      -2.92866413       0.00000000
Si      -0.78247387       3.48617406      -0.98859367       0.00000000
Si      -2.64588698       2.62871732       0.13882857       0.00000000
Si      -2.60407055      -2.70417260      -0.01174688       0.00000000
Si       2.75659383      -0.05075964       2.59100728       0.00000000
Si       0.06247215       2.64261269       2.71166106       0.00000000
