10
Lattice="16.2900001489832 0.0 0.0 0.0 16.2900001489832 0.0 0.0 0.0 28.95459006505858" Properties=species:S:1:pos:R:3:initial_magmoms:R:1 pbc="T T T"
Si       1.73514566       0.09322767       1.52075298       0.00000000
Si      -1.61494174       1.55453842       0.70209090       0.00000000
Si      -1.24164010      -1.99446617      -0.38028959       0.00000000
Si       0.74099953       1.00727587      -2.03455218       0.00000000
H        2.32269338      -1.25170732       1.83618428       0.00000000
Si      -2.83822302       1.06595245      -1.25738203       0.00000000
H       -0.57238174       0.16757523       3.42483578       0.00000000
Si      -2.26561322       0.39211659       2.66066624       0.00000000
Si       2.17549694       2.59322141      -0.98497724       0.00000000
Si      -1.37619550       1.63250236      -2.97450504       0.00000000
