10
Lattice="16.2900001489832 0.0 0.0 0.0 16.2900001489832 0.0 0.0 0.0 28.95459006505858" Properties=species:S:1:pos:R:3:initial_magmoms:R:1 pbc="T T T"
Si      -1.36624231       1.35022924       1.34395625       0.00000000
Si       1.36021501       1.36697536      -1.33686238       0.00000000
Si      -1.36788760      -1.34749252      -1.35058685       0.00000000
Si       1.39289275      -1.35817876       1.31778130       0.00000000
Si       2.74238895      -0.00654858      -2.63799479       0.00000000
Si      -0.01268991      -2.71189406      -2.68188995       0.00000000
Si       0.06283053      -2.76913713       2.62273572       0.00000000
Si      -0.01326006       2.70922250       2.69185033       0.00000000
Si      -2.71446788       2.70205490      -0.01580921       0.00000000
Si      -2.72332964      -0.00676035       2.69405088       0.00000000
