10
Lattice="16.2900001489832 0.0 0.0 0.0 16.2900001489832 0.0 0.0 0.0 28.95459006505858" Properties=species:S:1:pos:R:3:initial_magmoms:R:1 pbc="T T T"
Si       1.34517934       1.38130388       1.26612631       0.00000000
Si      -1.28899513       1.42177639      -1.34653321       0.00000000
Si      -1.34855137      -1.23660665       1.49243539       0.00000000
Si       1.44884890      -1.33286427      -1.30454906       0.00000000
Si       3.03272562       0.05123759       2.09376432       0.00000000
Si      -2.62725122       0.04081590      -2.66886038       0.00000000
Si      -2.58284468      -2.70998830       0.16344866       0.00000000
Si       0.09013257      -2.61979057      -2.71211854       0.00000000
Si       0.00089595       2.65904914       2.68177413       0.00000000
Si      -2.63953388       2.80258033       0.00191100       0.00000000
