10
Lattice="16.2900001489832 0.0 0.0 0.0 16.2900001489832 0.0 0.0 0.0 28.95459006505858" Properties=species:S:1:pos:R:3:initial_magmoms:R:1 pbc="T T T"
Si       1.59068593       1.08906959      -1.37751462       0.00000000
Si      -1.44581896       1.85969248       0.27298388       0.00000000
Si      -1.02218122      -1.53002197      -1.50653628       0.00000000
Si       0.69888988      -0.69846634       2.21320200       0.00000000
Si      -1.27321012       2.42089439       2.58848244       0.00000000
Si       3.16788864       2.07602857       0.05483999       0.00000000
Si       0.41081751       2.51013753      -2.81050624       0.00000000
Si      -2.27063054      -0.31175802      -3.08708048       0.00000000
Si       2.21864915      -2.46454670       1.97811968       0.00000000
Si      -0.90446968       3.61525602      -1.24050150       0.00000000
