10
Lattice="16.2900001489832 0.0 0.0 0.0 16.2900001489832 0.0 0.0 0.0 28.95459006505858" Properties=species:S:1:pos:R:3:initial_magmoms:R:1 pbc="T T T"
Si       1.46702854      -1.35542575      -1.22840717       0.00000000
Si       1.29337714       1.32027193       1.44757025       0.00000000
Si      -1.30818475      -1.29603241       1.46193173       0.00000000
Si      -1.31238757       1.29484324      -1.46226760       0.00000000
Si      -2.68135031      -2.62878248       0.16863732       0.00000000
Si       2.67167405       2.65229824       0.15839029       0.00000000
Si       0.16430094       2.71157657      -2.64059636       0.00000000
Si      -2.70912476       2.67465496      -0.10888374       0.00000000
Si       2.74131381      -2.68167611       0.19570987       0.00000000
Si      -0.05836707       2.74024942       2.72432290       0.00000000
