10
Lattice="16.2900001489832 0.0 0.0 0.0 16.2900001489832 0.0 0.0 0.0 28.95459006505858" Properties=species:S:1:pos:R:3:initial_magmoms:R:1 pbc="T T T"
Si      -1.40804245      -0.37959235       0.43400035       0.00000000
Si       0.66740131       0.75424216       2.36420019       0.00000000
H        1.50531004       2.27963614      -0.32550750       0.00000000
Si       2.52846866       1.19843136      -0.60656971       0.00000000
Si       2.55852371      -0.12524029       1.33275083       0.00000000
Si       1.68254525       0.02300441      -2.37650589       0.00000000
Si      -1.70188148      -2.15917713      -1.05626345       0.00000000
Si       0.47048778      -2.85008491      -0.79211072       0.00000000
Si      -1.00334998      -0.83344805       2.78137792       0.00000000
Si      -2.77061952       1.35017272      -0.39268215       0.00000000
