10
Lattice="16.2900001489832 0.0 0.0 0.0 16.2900001489832 0.0 0.0 0.0 28.95459006505858" Properties=species:S:1:pos:R:3:initial_magmoms:R:1 pbc="T T T"
Si       1.30244212      -1.30929247       1.41761094       0.00000000
Si      -0.92597248      -1.81327250      -1.14571865       0.00000000
Si       1.68891626       0.88104466      -1.35497318       0.00000000
Si      -1.40136355       1.44000343       1.22155941       0.00000000
H       -1.39531996      -1.42703659      -2.52886205       0.00000000
Si       0.65223532       0.76590694      -3.46988622       0.00000000
Si       2.52865763      -2.59724993      -0.10690324       0.00000000
Si       2.70200766       0.12471624       2.60588705       0.00000000
Si       3.43301979      -0.79373026      -1.32275425       0.00000000
Si      -2.72808632       0.09570375       2.62965877       0.00000000
