10
Lattice="16.2900001489832 0.0 0.0 0.0 16.2900001489832 0.0 0.0 0.0 28.95459006505858" Properties=species:S:1:pos:R:3:initial_magmoms:R:1 pbc="T T T"
Si       1.48160809       1.28801773       1.25390748       0.00000000
Si      -1.27906149       1.41877756      -1.33443019       0.00000000
Si      -1.41056089      -1.32842182       1.33582001       0.00000000
Si       1.35053875      -1.38080394      -1.34844421       0.00000000
Si      -2.66686850       0.04644279      -2.64778144       0.00000000
Si       2.64042983      -0.14353119       2.67986313       0.00000000
Si       0.01228266      -2.76176443      -2.67077139       0.00000000
Si       0.09467748       2.63308304      -2.79944559       0.00000000
Si       2.79306714       2.63907776      -0.12230419       0.00000000
Si      -2.71467965      -2.72822284       0.00998933       0.00000000
