10
Lattice="16.2900001489832 0.0 0.0 0.0 16.2900001489832 0.0 0.0 0.0 28.95459006505858" Properties=species:S:1:pos:R:3:initial_magmoms:R:1 pbc="T T T"
Si      -1.33825609      -1.38096049      -1.32232717       0.00000000
Si       1.28899513      -1.42177639       1.34653321       0.00000000
Si      -1.35053875       1.38080394       1.34844421       0.00000000
Si       1.41416749       1.32318621      -1.35009463       0.00000000
Si       2.63417447      -0.04047251       2.61265953       0.00000000
Si       0.13106934       2.66882168       2.60235169       0.00000000
Si      -2.66946024       0.02685244      -2.64694176       0.00000000
Si      -2.63659680      -2.74859706       0.09902470       0.00000000
Si       0.03440448      -2.69231511      -2.70988904       0.00000000
Si      -2.62960024       2.79958151       0.01401402       0.00000000
