10
Lattice="16.2900001489832 0.0 0.0 0.0 16.2900001489832 0.0 0.0 0.0 28.95459006505858" Properties=species:S:1:pos:R:3:initial_magmoms:R:1 pbc="T T T"
H       -1.51407406      -0.59655610      -0.14155899       0.00000000
Si       0.79345333      -0.67090366      -2.04564179       0.00000000
Si      -0.40580019       2.19778166       0.74503056       0.00000000
Si       1.51830946      -1.12203892       1.43160180       0.00000000
H        1.38100105      -2.01583865      -1.73021048       0.00000000
H       -2.62394435      -0.97541263       1.39853565       0.00000000
Si      -3.20730555      -0.37201473      -0.90572853       0.00000000
Si      -0.09674631      -2.34939269       2.54395028       0.00000000
Si       2.58856247       0.73093231       2.30744919       0.00000000
Si      -2.07743114      -1.25545402       2.76290489       0.00000000
