10
Lattice="16.2900001489832 0.0 0.0 0.0 16.2900001489832 0.0 0.0 0.0 28.95459006505858" Properties=species:S:1:pos:R:3:initial_magmoms:R:1 pbc="T T T"
Si      -1.68891626      -0.88104466       1.35497318       0.00000000
Si      -1.03668095      -0.11513772      -2.11491304       0.00000000
Si       0.89411901       1.90700516       1.14235963       0.00000000
Si       1.74410353      -1.67477492       0.03221893       0.00000000
Si       2.33995915       0.63187282       2.55270586       0.00000000
Si      -0.38647414      -2.19033713       2.77258412       0.00000000
H        2.69475536       2.24790599      -0.89922562       0.00000000
Si       0.60001609       0.65205613      -3.58763035       0.00000000
Si      -2.61488874      -2.69431715       0.20925453       0.00000000
Si       0.83974136      -3.47829459       1.24806994       0.00000000
