10
Lattice="16.2900001489832 0.0 0.0 0.0 16.2900001489832 0.0 0.0 0.0 28.95459006505858" Properties=species:S:1:pos:R:3:initial_magmoms:R:1 pbc="T T T"
Si      -1.01076193       1.76842613      -1.19275538       0.00000000
Si       1.74764009      -0.93121786      -1.28543903       0.00000000
Si       0.82308484       0.84598858       2.07283015       0.00000000
Si      -1.70149052      -1.74848717      -0.03457178       0.00000000
H        0.31685679      -2.58616784       1.64936927       0.00000000
H        2.67116906       1.99415666       0.74563860       0.00000000
Si      -2.36947826       0.48149982      -2.60032487       0.00000000
Si       0.45659241      -2.29750904      -2.68420632       0.00000000
Si       3.07261983      -2.28463994       0.09644774       0.00000000
Si      -0.63894268       0.27943866       3.78995316       0.00000000
