10
Lattice="16.2900001489832 0.0 0.0 0.0 16.2900001489832 0.0 0.0 0.0 28.95459006505858" Properties=species:S:1:pos:R:3:initial_magmoms:R:1 pbc="T T T"
H        0.96976000      -1.98154820      -0.59113691       0.00000000
Si       0.68224150      -1.37367055       1.72589625       0.00000000
Si       1.37430586       1.38478033      -1.27831620       0.00000000
Si      -0.77480128       1.71980048       1.43307848       0.00000000
Si      -1.70171858      -1.01726164      -1.31077429       0.00000000
Si      -0.73865377       2.23308209      -1.90416966       0.00000000
Si      -0.46278261       0.06516000       3.13196010       0.00000000
H        2.74665693       0.70040485       1.60052287       0.00000000
Si      -2.62418870       2.02769777      -0.05964646       0.00000000
Si       1.90684226      -2.22614255      -1.76431899       0.00000000
