10
Lattice="16.2900001489832 0.0 0.0 0.0 16.2900001489832 0.0 0.0 0.0 28.95459006505858" Properties=species:S:1:pos:R:3:initial_magmoms:R:1 pbc="T T T"
Si      -1.34144405       1.35941680       1.37604373       0.00000000
Si       1.44584014      -1.27513234       1.41034623       0.00000000
Si       0.83664300       1.88146244      -1.21650457       0.00000000
Si      -0.89411901      -1.90700516      -1.14235963       0.00000000
H        1.80063634       0.34090083      -2.04158525       0.00000000
H       -0.14509014       2.88609933      -0.60111466       0.00000000
Si       2.75571905       2.61788447       0.11631348       0.00000000
Si      -2.58303528      -2.78804982       0.21261355       0.00000000
Si       2.75193977      -2.67444335       0.02498492       0.00000000
Si       0.84998451      -3.58178007      -1.11014070       0.00000000
