10
Lattice="16.2900001489832 0.0 0.0 0.0 16.2900001489832 0.0 0.0 0.0 28.95459006505858" Properties=species:S:1:pos:R:3:initial_magmoms:R:1 pbc="T T T"
H       -1.48454192      -0.43515477      -1.63335738       0.00000000
Si      -0.92797615       2.10846359      -0.15010059       0.00000000
Si       1.92204083       0.24231375       1.31239575       0.00000000
Si      -1.47562478      -1.35936956       1.23786663       0.00000000
Si       1.12102894      -1.07416750      -1.77703006       0.00000000
Si       0.88819597       3.30713067       0.69601044       0.00000000
Si       1.61318242      -1.74857187       2.56355254       0.00000000
Si      -0.05584212      -3.16030890       1.61581090       0.00000000
Si      -2.41141361       0.15350067      -2.68209263       0.00000000
Si      -1.54631686       2.32927454      -2.37725871       0.00000000
