10
Lattice="16.2900001489832 0.0 0.0 0.0 16.2900001489832 0.0 0.0 0.0 28.95459006505858" Properties=species:S:1:pos:R:3:initial_magmoms:R:1 pbc="T T T"
Si      -1.32814000      -1.43350861       1.25654234       0.00000000
Si      -1.42092784       1.27997047      -1.35715955       0.00000000
Si       1.33669225      -1.41632266      -1.30880538       0.00000000
Si       1.27158112       1.39080926       1.43064630       0.00000000
Si      -2.61855236      -0.05460636       2.60168574       0.00000000
Si       2.57950523      -0.05977909       2.71376895       0.00000000
Si       2.66171712      -0.05215146      -2.67974731       0.00000000
Si       2.62731638       2.71488654       0.05599818       0.00000000
Si      -0.07123617       2.66165082      -2.68354036       0.00000000
Si      -0.06051735      -2.77143890      -2.63683661       0.00000000
