10
Lattice="16.2900001489832 0.0 0.0 0.0 16.2900001489832 0.0 0.0 0.0 28.95459006505858" Properties=species:S:1:pos:R:3:initial_magmoms:R:1 pbc="T T T"
Si      -1.22621551       1.28795746       1.52451418       0.00000000
Si       0.90436216       1.80351967      -1.21585101       0.00000000
Si       1.49798606      -1.39076870       1.22595761       0.00000000
Si      -1.80837898      -0.92402582      -1.25038718       0.00000000
H        1.59041552      -1.31920494      -2.62672567       0.00000000
Si      -2.52865763       2.59724993       0.10690324       0.00000000
Si      -3.45463011       0.78397743      -1.03881541       0.00000000
Si      -2.57319449      -2.72664792       0.07783862       0.00000000
Si      -0.83974136       3.47829459      -1.24806994       0.00000000
Si      -2.59238411      -0.08569029       2.81462358       0.00000000
