10
Lattice="16.2900001489832 0.0 0.0 0.0 16.2900001489832 0.0 0.0 0.0 28.95459006505858" Properties=species:S:1:pos:R:3:initial_magmoms:R:1 pbc="T T T"
Si       1.30681639       1.32667390      -1.36431133       0.00000000
Si      -1.34369695       1.42537501       1.25874289       0.00000000
Si       1.41434668      -1.35988921       1.26757404       0.00000000
Si      -1.29103138      -1.22784247      -1.51134853       0.00000000
Si      -2.61789913      -2.61604370      -0.10319416       0.00000000
Si      -2.67220022       0.05400135       2.61665526       0.00000000
Si       0.05494617      -2.69601131       2.61781344       0.00000000
Si       0.04919580       2.77228110       2.58819290       0.00000000
Si       2.75413404       0.02065572       2.62322795       0.00000000
Si       2.73958707       0.02526579      -2.67781314       0.00000000
