10
Lattice="16.2900001489832 0.0 0.0 0.0 16.2900001489832 0.0 0.0 0.0 28.95459006505858" Properties=species:S:1:pos:R:3:initial_magmoms:R:1 pbc="T T T"
Si       1.34369695      -1.42537501      -1.25874289       0.00000000
Si      -1.32850327      -1.37137366       1.35791236       0.00000000
Si       1.39289275       1.34690608       1.32945000       0.00000000
Si      -1.32497323       1.32054886      -1.43915894       0.00000000
Si       2.65051334      -0.09870111      -2.62305422       0.00000000
Si      -2.63057992       2.68213223      -0.01751753       0.00000000
Si      -2.66535658      -0.01353699       2.71512982       0.00000000
Si      -2.67206391      -2.70998813      -0.02440872       0.00000000
Si       0.05124834       2.69798240       2.69706216       0.00000000
Si       0.05266557      -2.65321748      -2.77009142       0.00000000
