10
Lattice="16.2900001489832 0.0 0.0 0.0 16.2900001489832 0.0 0.0 0.0 28.95459006505858" Properties=species:S:1:pos:R:3:initial_magmoms:R:1 pbc="T T T"
Si       1.33685331      -1.35783667      -1.35721745       0.00000000
Si      -1.35200181      -1.36893016       1.33544360       0.00000000
Si      -1.33321944       1.35645202      -1.36711992       0.00000000
Si       1.36019199       1.35990550       1.34123452       0.00000000
Si      -2.67406564       2.69790095       0.01456416       0.00000000
Si       2.66535658       0.01353699      -2.71512982       0.00000000
Si      -2.70431617      -0.02091636      -2.68015267       0.00000000
Si      -2.71154893      -0.01904301       2.68003686       0.00000000
Si       2.71596961      -0.00785178       2.67676499       0.00000000
Si      -0.00227146      -2.72448623       2.68420632       0.00000000
