10
Lattice="16.2900001489832 0.0 0.0 0.0 16.2900001489832 0.0 0.0 0.0 28.95459006505858" Properties=species:S:1:pos:R:3:initial_magmoms:R:1 pbc="T T T"
H        0.58754773      -1.34493499       0.31543130       0.00000000
Si      -0.79345333       0.67090366       2.04564179       0.00000000
Si      -1.73514566      -0.09322767      -1.52075298       0.00000000
Si       1.68880061       1.28172979      -0.92518602       0.00000000
H        1.25517709      -2.50646087       0.21385860       0.00000000
H       -2.30752739       0.07434756       1.90408280       0.00000000
H       -1.60443469      -2.77206933       0.97779651       0.00000000
Si       0.44035128       2.49999374      -2.50573022       0.00000000
Si       0.72485614      -0.45113526       3.47724358       0.00000000
Si      -3.35008740       1.46131075      -0.81866208       0.00000000
