10
Lattice="16.2900001489832 0.0 0.0 0.0 16.2900001489832 0.0 0.0 0.0 28.95459006505858" Properties=species:S:1:pos:R:3:initial_magmoms:R:1 pbc="T T T"
Si       1.35205372       1.34908894       1.37604083       0.00000000
Si      -1.35015757      -1.39690009       1.34757847       0.00000000
Si       1.33736014      -1.47764962      -1.27738675       0.00000000
Si      -1.42701867       1.40761891      -1.26769565       0.00000000
H       -1.56344905      -1.20943477      -1.99481490       0.00000000
Si      -0.58171591      -2.21407166      -2.61020481       0.00000000
Si      -0.00522909       2.71420724      -2.56064116       0.00000000
Si      -2.65576426      -0.03531672       2.76921989       0.00000000
Si       2.73116513       2.69531084       0.02118318       0.00000000
Si      -2.65341850       2.78565519       0.15628240       0.00000000
