10
Lattice="16.2900001489832 0.0 0.0 0.0 16.2900001489832 0.0 0.0 0.0 28.95459006505858" Properties=species:S:1:pos:R:3:initial_magmoms:R:1 pbc="T T T"
Si       1.35577762      -1.36775728       1.33553047       0.00000000
Si      -1.36019199      -1.35990550      -1.34123452       0.00000000
Si       1.35641293       1.35161389      -1.35930219       0.00000000
Si      -1.32803966       1.36871839       1.37273711       0.00000000
Si       2.69983295       0.00185706       2.68519077       0.00000000
Si      -2.69341143      -0.00345348      -2.70835445       0.00000000
Si       0.00055875      -2.72375318       2.67966045       0.00000000
Si      -2.74285158       0.02404404       2.66049251       0.00000000
Si      -2.69580606       2.71456562       0.02637763       0.00000000
Si      -0.02333868      -2.71774217      -2.69845198       0.00000000
