10
Lattice="16.2900001489832 0.0 0.0 0.0 16.2900001489832 0.0 0.0 0.0 28.95459006505858" Properties=species:S:1:pos:R:3:initial_magmoms:R:1 pbc="T T T"
Si      -1.37885077      -1.37125100      -1.30498337       0.00000000
Si       1.33885882       1.34262996      -1.38814096       0.00000000
Si       1.51726690      -1.32265581       1.23181513       0.00000000
Si      -1.39580866       1.34803824       1.34800990       0.00000000
H       -0.20152359      -0.81975842       2.42129864       0.00000000
H        0.91031779      -2.50931977       1.96584294       0.00000000
Si      -2.67916745       2.69782765      -0.07710607       0.00000000
Si       2.67424787       2.70468574      -0.03865438       0.00000000
Si      -0.03122793      -2.68846090      -2.70021821       0.00000000
Si       2.68597667       0.07555139       2.71782260       0.00000000
