10
Lattice="16.2900001489832 0.0 0.0 0.0 16.2900001489832 0.0 0.0 0.0 28.95459006505858" Properties=species:S:1:pos:R:3:initial_magmoms:R:1 pbc="T T T"
Si       1.47475000       1.38277666       1.14541897       0.00000000
Si      -1.42178958      -1.30658833       1.29294550       0.00000000
Si      -0.77387275       1.57504753      -1.53417198       0.00000000
Si       0.76939300      -1.55981638      -1.56567458       0.00000000
H       -0.54462357      -2.29270349      -1.86115617       0.00000000
H        0.12290805       2.77575412      -1.35407443       0.00000000
Si      -0.47174211       0.55017847      -3.55688174       0.00000000
Si       0.03047859       2.70419036       2.49860884       0.00000000
Si       0.00522909      -2.71420724       2.56064116       0.00000000
Si       2.73639423      -0.01889640       2.58182433       0.00000000
