10
Lattice="16.2900001489832 0.0 0.0 0.0 16.2900001489832 0.0 0.0 0.0 28.95459006505858" Properties=species:S:1:pos:R:3:initial_magmoms:R:1 pbc="T T T"
Si      -0.00200367       0.54459100       2.25255129       0.00000000
Si      -1.82242748      -0.96757714      -1.11619945       0.00000000
Si       1.01672407       1.80900452      -1.09879774       0.00000000
Si       1.53813439      -1.72320509       0.50954288       0.00000000
H        1.06227091      -2.20582892       1.86372010       0.00000000
H        1.34320825       0.08151516       2.77358914       0.00000000
Si      -0.47151405      -2.25621389      -2.52773571       0.00000000
Si       2.38464425       0.55377856      -2.51476406       0.00000000
Si       3.43367139      -0.34865487       0.97501687       0.00000000
Si       0.91219114      -3.44953785      -1.05302053       0.00000000
