10
Lattice="10.86 0.0 0.0 0.0 10.86 0.0 0.0 0.0 10.86" Properties=species:S:1:pos:R:3:initial_magmoms:R:1 pbc="T T T"
Si      -1.32296520       1.32152082      -1.36525404       0.00000000
Si       1.39203480       1.32152082       1.34974596       0.00000000
Si      -1.32296520      -1.39347918       1.34974596       0.00000000
Si      -2.57452590       0.01005636      -2.69482212       0.00000000
Si       2.76916968      -0.04487352      -2.54374866       0.00000000
Si      -2.68046520       2.67902082      -0.00775404       0.00000000
Si       2.82297012      -2.52219156      -0.21197634       0.00000000
Si      -2.58185640      -2.79757944       0.03726066       0.00000000
Si       0.03453480       2.67902082       2.70724596       0.00000000
Si      -2.68046520      -0.03597918       2.70724596       0.00000000
