10
Lattice="16.290000149 0.0 0.0 0.0 16.290000149 0.0 0.0 0.0 29.1751946751" Properties=species:S:1:pos:R:3:initial_magmoms:R:1 pbc="T T T"
Si      -1.34443489      -1.33059979       1.37945280       0.00000000
Si       1.36493911       1.36723600       1.36136418       0.00000000
Si      -1.38633114       1.33726240      -1.37427129       0.00000000
Si       1.38364003      -1.37378458      -1.34763142       0.00000000
Si       2.68227884       0.11429064      -2.61467307       0.00000000
Si      -2.67496463      -2.69257412       0.00137707       0.00000000
Si      -2.60164220      -0.16166196      -2.76695504       0.00000000
Si      -2.69700500       0.05981688       2.70835374       0.00000000
Si      -0.04157208       2.80184745      -2.60579710       0.00000000
Si       0.02772558      -2.67796199       2.74149677       0.00000000
