10
Lattice="16.290000149 0.0 0.0 0.0 16.290000149 0.0 0.0 0.0 29.1751946751" Properties=species:S:1:pos:R:3:initial_magmoms:R:1 pbc="T T T"
Si      -1.34242633      -1.37774305       1.31454675       0.00000000
Si       1.30331404      -1.34793235      -1.43101412       0.00000000
Si       1.23090499       1.43255727       1.42672537       0.00000000
Si      -1.40170564       1.33929539      -1.36067273       0.00000000
Si       0.20513997      -2.70361874       2.49663811       0.00000000
Si       2.64318284       2.71464707       0.04361692       0.00000000
Si      -2.70733286      -0.00449604       2.65634312       0.00000000
Si      -0.28584063       2.75278197       2.62778061       0.00000000
Si       2.65800674       0.00627165      -2.76572093       0.00000000
Si      -0.06654465       2.70262505      -2.73001049       0.00000000
