10
Lattice="16.290000149 0.0 0.0 0.0 16.290000149 0.0 0.0 0.0 29.1751946751" Properties=species:S:1:pos:R:3:initial_magmoms:R:1 pbc="T T T"
Si       1.32947252      -1.35889552       1.37479352       0.00000000
Si      -1.37051355      -1.36919080      -1.32484559       0.00000000
Si      -1.36424190       1.35234694       1.34944028       0.00000000
Si       1.36741193       1.36524862      -1.34369277       0.00000000
Si      -2.69678020       0.01257588      -2.68522657       0.00000000
Si       0.00790879      -2.71810544      -2.66608764       0.00000000
Si       2.68568020       0.00908982       2.71221362       0.00000000
Si      -0.01879377       2.71282259       2.70112705       0.00000000
Si       2.72528119       0.00895950      -2.69756767       0.00000000
Si       2.71229806      -2.71475459       0.04008672       0.00000000
