10
Lattice="16.290000149 0.0 0.0 0.0 16.290000149 0.0 0.0 0.0 29.1751946751" Properties=species:S:1:pos:R:3:initial_magmoms:R:1 pbc="T T T"
Si       1.21279051      -1.53269353       1.24904843       0.00000000
Si      -1.38660481      -1.35187453      -1.29517442       0.00000000
Si      -1.06671808       1.46302120       1.47002136       0.00000000
Si       1.36860436       1.31717683      -1.36373612       0.00000000
Si       0.74161855       2.21974058       2.85298394       0.00000000
Si      -2.37172628       0.10904526       2.86512082       0.00000000
Si      -0.02783961       2.60055191      -2.72067443       0.00000000
Si      -0.02766042      -2.70272279      -2.62582587       0.00000000
Si      -2.74633113       0.00477297      -2.59568790       0.00000000
Si      -2.51283026       2.81911485       0.19308144       0.00000000
