10
Lattice="16.290000149 0.0 0.0 0.0 16.290000149 0.0 0.0 0.0 29.1751946751" Properties=species:S:1:pos:R:3:initial_magmoms:R:1 pbc="T T T"
Si       1.32862870       1.38178297      -1.37357108       0.00000000
Si       1.35132067      -1.36119241       1.37456012       0.00000000
Si      -1.36011727       1.34926813       1.39239784       0.00000000
Si      -1.38774511      -1.38160378      -1.34077816       0.00000000
Si       2.52074720      -0.09202221      -2.80747355       0.00000000
Si      -2.64600101      -2.74846512       0.08495525       0.00000000
Si      -2.85382884       0.03318273      -2.54022877       0.00000000
Si      -0.07073118       2.81194725      -2.58588795       0.00000000
Si       2.72287352       0.04616586       2.68641983       0.00000000
Si      -2.72797229      -0.00021177       2.74188188       0.00000000
