10
Lattice="16.290000149 0.0 0.0 0.0 16.290000149 0.0 0.0 0.0 29.1751946751" Properties=species:S:1:pos:R:3:initial_magmoms:R:1 pbc="T T T"
Si       1.06204285       1.08849781      -0.19456937       0.00000000
H       -0.53812386       1.56032137       1.83456542       0.00000000
Si      -2.18387000      -0.78227839      -1.10699441       0.00000000
Si      -0.96316255       0.26039565       2.49404152       0.00000000
Si      -0.13393638      -2.68169240       1.00301402       0.00000000
Si       1.06300396      -1.10055241       2.42819310       0.00000000
Si      -0.52727472      -2.48319875      -1.35107409       0.00000000
Si       2.54072363       0.00472410      -1.62222835       0.00000000
Si       2.23634498       0.92960515       1.82129070       0.00000000
Si      -0.18301815       2.73183303      -1.35142419       0.00000000
