10
Lattice="16.290000149 0.0 0.0 0.0 16.290000149 0.0 0.0 0.0 29.1751946751" Properties=species:S:1:pos:R:3:initial_magmoms:R:1 pbc="T T T"
Si       1.34785416      -1.33545421       1.37502693       0.00000000
Si      -1.26878836       1.36133902       1.42532496       0.00000000
Si       1.34234814       1.36837630      -1.36297757       0.00000000
Si      -1.37949911      -1.36094806      -1.33424000       0.00000000
Si       2.66665999       0.13206303       2.64805737       0.00000000
Si      -2.65448485       2.71575479       0.06596512       0.00000000
Si       0.01606031      -2.69915691      -2.68236740       0.00000000
Si      -2.68418152       0.01798416      -2.70970456       0.00000000
Si      -0.06379816      -2.62457478       2.76790907       0.00000000
Si       2.71953733       0.02228472      -2.72076195       0.00000000
