10
Lattice="16.290000149 0.0 0.0 0.0 16.290000149 0.0 0.0 0.0 29.1751946751" Properties=species:S:1:pos:R:3:initial_magmoms:R:1 pbc="T T T"
Si      -0.90321535       0.89717176      -0.81267505       0.00000000
Si       0.89314813      -1.56124990       1.49639573       0.00000000
H       -2.02606877      -0.34531542       1.41779776       0.00000000
Si       1.91342342       0.59098492       1.89411199       0.00000000
Si       1.87932845      -1.96940563      -0.65332013       0.00000000
Si      -1.41398830      -1.64920124       1.86169835       0.00000000
Si      -2.22202118      -0.57034549      -2.08570549       0.00000000
Si       0.44386992       2.20679003      -2.20123926       0.00000000
Si      -2.03833514       2.32847633       0.64780602       0.00000000
Si       3.04326525       2.02597103       0.34298359       0.00000000
