10
Lattice="16.290000149 0.0 0.0 0.0 16.290000149 0.0 0.0 0.0 29.1751946751" Properties=species:S:1:pos:R:3:initial_magmoms:R:1 pbc="T T T"
Si      -1.43332453       1.31970178      -1.28224981       0.00000000
Si      -1.37990962      -1.31748634       1.36326932       0.00000000
Si       1.33527502       1.40462155       1.33817865       0.00000000
Si       1.34433226      -1.28016595      -1.46138550       0.00000000
Si      -0.07788249       2.66035250      -2.59796064       0.00000000
Si       2.68455944      -2.61571790      -0.03938651       0.00000000
Si      -0.02329470      -2.68710068       2.70194395       0.00000000
Si      -2.75328696      -2.64484442       0.00020423       0.00000000
Si       2.69850368       0.06607224       2.70249828       0.00000000
Si      -2.74820448       0.06283053       2.68522657       0.00000000
