10
Lattice="16.290000149 0.0 0.0 0.0 16.290000149 0.0 0.0 0.0 29.1751946751" Properties=species:S:1:pos:R:3:initial_magmoms:R:1 pbc="T T T"
Si       1.34242633       1.37774305      -1.31454675       0.00000000
Si      -1.36490653       1.37324701       1.34179638       0.00000000
Si       1.54756630      -1.32587569       1.18209136       0.00000000
Si      -1.40760262      -1.32497974      -1.35909727       0.00000000
Si       2.57333132       2.81030033       0.11217862       0.00000000
Si       2.64574037       0.02981070      -2.74556087       0.00000000
Si      -0.05927931       2.71703845      -2.67521948       0.00000000
Si       2.62902683      -2.74815561      -0.31439190       0.00000000
Si      -2.71831232       0.08749359       2.70985043       0.00000000
Si      -2.78604615      -2.64486071       0.00081691       0.00000000
