10
Lattice="16.290000149 0.0 0.0 0.0 16.290000149 0.0 0.0 0.0 29.1751946751" Properties=species:S:1:pos:R:3:initial_magmoms:R:1 pbc="T T T"
H       -0.69051682      -0.41435244       2.10916235       0.00000000
Si      -1.52990794       1.78092056      -0.08632940       0.00000000
Si       1.12743091      -1.13324644      -1.73326914       0.00000000
Si      -1.65802880      -1.53070615       0.77369699       0.00000000
Si       1.85000645       0.86066587       1.28931020       0.00000000
H       -0.98275942       0.36228960       2.55554283       0.00000000
H       -1.28042659       1.21845943       2.86086124       0.00000000
H        0.61804261       3.11209050       1.47145094       0.00000000
Si       2.44123571      -2.54207081      -0.33102176       0.00000000
H        1.35682669       3.26085078      -0.90425598       0.00000000
