10
Lattice="16.290000149 0.0 0.0 0.0 16.290000149 0.0 0.0 0.0 29.1751946751" Properties=species:S:1:pos:R:3:initial_magmoms:R:1 pbc="T T T"
Si       1.44163732      -1.21319776       1.37488105       0.00000000
Si      -1.44004742       1.24266637       1.36825828       0.00000000
Si      -1.35869125      -1.41522634      -1.30833243       0.00000000
Si       1.36414579       1.42654789      -1.30261409       0.00000000
H       -1.14961789      -1.35785296       2.99638002       0.00000000
Si      -0.05426688      -2.39052494       2.75976919       0.00000000
Si      -0.01474897       2.67977018       2.53296123       0.00000000
Si       2.57675711      -2.64450233      -0.08560002       0.00000000
Si       2.56411607       0.02176344      -2.77467771       0.00000000
Si      -2.72267316       2.66007557       0.00563081       0.00000000
