10
Lattice="16.290000149 0.0 0.0 0.0 16.290000149 0.0 0.0 0.0 29.1751946751" Properties=species:S:1:pos:R:3:initial_magmoms:R:1 pbc="T T T"
Si      -1.29790576      -1.35449722       1.43724595       0.00000000
Si       1.36149866      -1.46038222      -1.28245987       0.00000000
Si       1.39302470       1.28651905       1.43543708       0.00000000
Si      -1.30520368       1.52392951      -1.32396158       0.00000000
Si       2.70625772       0.00420282      -2.51398568       0.00000000
Si      -2.52762158       2.72859099       0.27738900       0.00000000
Si      -2.64438830      -2.68752422       0.04814491       0.00000000
Si       2.80678332       2.67825521       0.18284094       0.00000000
Si      -2.63985968      -0.05020578       2.86131637       0.00000000
Si       0.18100096       2.83319967      -2.68468391       0.00000000
