10
Lattice="16.290000149 0.0 0.0 0.0 16.290000149 0.0 0.0 0.0 29.1751946751" Properties=species:S:1:pos:R:3:initial_magmoms:R:1 pbc="T T T"
Si      -1.81405442      -1.30230406       0.65515817       0.00000000
Si       1.81675856      -1.46160397      -0.17055819       0.00000000
Si      -1.03513177       0.82401337      -1.94934063       0.00000000
Si       0.64547497       1.76696003       1.59118594       0.00000000
H        0.06242328      -1.14528475       3.13426199       0.00000000
Si      -2.56042964       2.08357247      -0.72660822       0.00000000
Si       3.45802494       0.20773008      -0.10748142       0.00000000
Si      -3.47027502       0.35016984       0.55885085       0.00000000
Si      -1.31202919      -1.71460397       2.86593772       0.00000000
Si       2.88046299       1.26447868       1.88089563       0.00000000
