10
Lattice="16.290000149 0.0 0.0 0.0 16.290000149 0.0 0.0 0.0 29.1751946751" Properties=species:S:1:pos:R:3:initial_magmoms:R:1 pbc="T T T"
Si       1.54103401      -1.26141616      -1.20557739       0.00000000
Si       1.39531996       1.31843116       1.37047851       0.00000000
Si      -1.21450096      -1.43387839       1.44439095       0.00000000
Si      -1.47491290       1.20853882      -1.45260377       0.00000000
H        0.36870786      -1.76761163      -2.29804256       0.00000000
Si      -2.66703140       2.68234400      -0.01870130       0.00000000
Si       2.85914052       2.49303791      -0.04172053       0.00000000
Si      -2.64433943      -0.06063138       2.72942990       0.00000000
Si      -0.14827158       2.53957844      -2.84916199       0.00000000
Si       0.06856461       2.76482028       2.68156800       0.00000000
