10
Lattice="16.290000149 0.0 0.0 0.0 16.290000149 0.0 0.0 0.0 29.1751946751" Properties=species:S:1:pos:R:3:initial_magmoms:R:1 pbc="T T T"
Si       1.41375861       1.39173616      -1.25259614       0.00000000
Si       1.36762533      -1.34583094       1.37356817       0.00000000
Si      -1.27831182       1.34697124       1.45698005       0.00000000
Si      -1.39302470      -1.28651905      -1.43543708       0.00000000
Si      -2.69093046      -2.64101627       0.00180886       0.00000000
Si      -2.59568283       2.78006446       0.17875642       0.00000000
Si       0.13510600       2.76404324      -2.64115744       0.00000000
Si       2.74207781       0.07561818      -2.67079360       0.00000000
Si       2.71974422      -2.71692767       0.01773852       0.00000000
Si       0.02306338      -2.69412167       2.74284758       0.00000000
