10
Lattice="16.290000149 0.0 0.0 0.0 16.290000149 0.0 0.0 0.0 29.1751946751" Properties=species:S:1:pos:R:3:initial_magmoms:R:1 pbc="T T T"
Si      -1.33322248      -1.33727055       1.33162299       0.00000000
Si       1.49736052      -1.23581480      -1.27989829       0.00000000
Si      -1.25110459       1.36933741      -1.41242077       0.00000000
Si       1.41991786       1.42918687       1.23592835       0.00000000
Si       0.65691055       2.15901146      -2.53362642       0.00000000
H       -0.54599193      -0.45734175      -3.35356317       0.00000000
Si       2.36231066       0.49166478      -2.66254694       0.00000000
Si       0.10138896      -2.68444541       2.59178717       0.00000000
Si      -2.66276342       0.08193870       2.61810320       0.00000000
Si      -2.69623937      -2.61829443      -0.07639233       0.00000000
