10
Lattice="16.290000149 0.0 0.0 0.0 16.290000149 0.0 0.0 0.0 29.1751946751" Properties=species:S:1:pos:R:3:initial_magmoms:R:1 pbc="T T T"
Si       1.35910729       1.36549297       1.33103073       0.00000000
Si       1.36357075      -1.34877943      -1.35034471       0.00000000
Si      -1.33058350       1.36607941      -1.37526033       0.00000000
Si      -1.35513253      -1.37748241       1.35620892       0.00000000
Si       2.69610905      -0.00900837       2.68432214       0.00000000
Si      -0.00509877      -2.69739596      -2.68925274       0.00000000
Si      -2.70875009       0.00177561      -2.68041266       0.00000000
Si      -2.71469594       2.68157837      -0.01695079       0.00000000
Si       0.01298313       2.71399547       2.69753850       0.00000000
Si       2.69628824       2.72306900      -0.04959783       0.00000000
