10
Lattice="16.290000149 0.0 0.0 0.0 16.290000149 0.0 0.0 0.0 29.1751946751" Properties=species:S:1:pos:R:3:initial_magmoms:R:1 pbc="T T T"
Si      -1.16165620      -0.15933249       2.04614393       0.00000000
Si      -1.52085070       1.00932841      -1.49721264       0.00000000
Si       1.02785014      -1.73934848      -1.26742881       0.00000000
Si       1.51529581       1.84544525       0.45367428       0.00000000
H        0.67274443      -2.91086013       1.91856080       0.00000000
Si       2.31956570      -0.44369073      -2.76484567       0.00000000
Si      -2.55603134       2.62578024      -0.17438014       0.00000000
Si      -0.23276781       2.44297874      -2.78401378       0.00000000
Si       0.41243022       0.57415735       3.65238427       0.00000000
Si      -3.09102753       1.35803215       1.75465456       0.00000000
