10
Lattice="16.290000149 0.0 0.0 0.0 16.290000149 0.0 0.0 0.0 29.1751946751" Properties=species:S:1:pos:R:3:initial_magmoms:R:1 pbc="T T T"
Si      -1.34754546      -1.35361756       1.35728841       0.00000000
Si      -1.36921117       1.35563752      -1.34109617       0.00000000
Si       1.32906283      -1.35057133      -1.39086906       0.00000000
Si       1.31465921       1.36611199       1.39442843       0.00000000
Si       0.02768762       2.69052158      -2.67673659       0.00000000
Si       2.68128108      -2.70889670      -0.03156756       0.00000000
Si      -2.69019986       0.01241298       2.70853755       0.00000000
Si       2.68955640       2.71423982       0.04379197       0.00000000
Si      -2.71859333      -2.70234812       0.00259659       0.00000000
Si       2.70468981       0.01778868       2.72408793       0.00000000
