10
Lattice="16.290000149 0.0 0.0 0.0 16.290000149 0.0 0.0 0.0 29.1751946751" Properties=species:S:1:pos:R:3:initial_magmoms:R:1 pbc="T T T"
Si       1.35298225       1.39867570      -1.31878007       0.00000000
Si      -1.35211888       1.37109673       1.35582965       0.00000000
Si       1.37818288      -1.34651512       1.35842624       0.00000000
Si      -1.36493911      -1.36723600      -1.36136418       0.00000000
Si       2.73730647       0.04212594      -2.63937483       0.00000000
Si      -2.70937400      -2.69783579       0.01808862       0.00000000
Si       2.69128721       2.72342738       0.08449136       0.00000000
Si      -2.69668083       0.02280600       2.72510906       0.00000000
Si       0.02326212      -2.69061932       2.73342399       0.00000000
Si      -2.71974422       2.71692767      -0.01773852       0.00000000
