10
Lattice="16.290000149 0.0 0.0 0.0 16.290000149 0.0 0.0 0.0 29.1751946751" Properties=species:S:1:pos:R:3:initial_magmoms:R:1 pbc="T T T"
Si       1.33322248       1.33727055      -1.33162299       0.00000000
Si      -1.32954094       1.41920925       1.28648021       0.00000000
Si       1.43461144      -1.34717487       1.26016418       0.00000000
Si      -1.36301689      -1.28102388      -1.40801532       0.00000000
Si       0.05566293      -2.69093698       2.59548367       0.00000000
Si      -2.67757103       0.04500438       2.62305423       0.00000000
Si       0.05712903       2.76906382       2.61033384       0.00000000
Si      -0.03875391      -2.76683209      -2.61308506       0.00000000
Si       2.78207139       0.04028680       2.59924727       0.00000000
Si      -2.71099811      -2.67837739      -0.09849546       0.00000000
