10
Lattice="16.290000149 0.0 0.0 0.0 16.290000149 0.0 0.0 0.0 29.1751946751" Properties=species:S:1:pos:R:3:initial_magmoms:R:1 pbc="T T T"
H       -0.64984069      -0.81531451       1.08648425       0.00000000
Si       1.23804001      -1.36337527      -1.42164889       0.00000000
Si      -1.57617154       1.08752041      -1.32554579       0.00000000
Si       1.28003563       1.46639323       1.28872670       0.00000000
H       -2.08353989      -1.72919981       0.52031042       0.00000000
Si      -3.17234721       1.00657540       0.47117939       0.00000000
H       -1.26227953      -2.42535296       2.19584185       0.00000000
Si       2.52346763      -0.01576872       2.64756139       0.00000000
Si      -0.28105137       2.67947696      -2.60096861       0.00000000
Si       2.56935656      -2.73310364      -0.09120166       0.00000000
