10
Lattice="16.290000149 0.0 0.0 0.0 16.290000149 0.0 0.0 0.0 29.1751946751" Properties=species:S:1:pos:R:3:initial_magmoms:R:1 pbc="T T T"
Si      -1.28808289      -1.43365033       1.28680114       0.00000000
Si       1.30890151      -1.40450752      -1.33966659       0.00000000
Si      -1.43101135       1.63426169      -0.92214038       0.00000000
Si       1.19280268       1.13159138       1.69542891       0.00000000
Si      -0.79322527       2.02851227       2.67866215       0.00000000
Si      -2.32326353       0.18280149       2.60963364       0.00000000
Si      -0.08272062       2.65829996      -2.55332551       0.00000000
Si       2.62809407       2.58339854       0.35847562       0.00000000
Si       0.23276781      -2.44297874       2.78401378       0.00000000
Si       1.74806363      -0.59753350       3.23768805       0.00000000
