10
Lattice="16.290000149 0.0 0.0 0.0 16.290000149 0.0 0.0 0.0 29.1751946751" Properties=species:S:1:pos:R:3:initial_magmoms:R:1 pbc="T T T"
Si      -1.36139441      -1.34886088       1.35320388       0.00000000
Si      -1.39003060       1.34832331      -1.32965950       0.00000000
Si       1.31725828      -1.36391284      -1.39066483       0.00000000
Si       1.37049400       1.36155079       1.35180347       0.00000000
Si      -0.01513341       2.69645114      -2.68029596       0.00000000
Si       0.01238040      -2.69044013       2.70649528       0.00000000
Si       2.68643279      -2.71994132      -0.06363110       0.00000000
Si       2.68508072      -0.01998783      -2.73351151       0.00000000
Si      -2.69917184       0.01436778       2.72750142       0.00000000
Si      -2.70468981      -0.01778868      -2.72408793       0.00000000
