10
Lattice="16.290000149 0.0 0.0 0.0 16.290000149 0.0 0.0 0.0 29.1751946751" Properties=species:S:1:pos:R:3:initial_magmoms:R:1 pbc="T T T"
Si       1.33052975       1.36197433       1.37807573       0.00000000
Si      -1.29490840      -1.31398399       1.46790616       0.00000000
Si      -1.39049812       1.35630541      -1.35613307       0.00000000
Si       1.39820981      -1.34913781      -1.37124582       0.00000000
Si      -0.10739997      -2.72859131      -2.54791643       0.00000000
Si       0.07332243       2.53091216      -2.76833211       0.00000000
Si      -2.68350059      -2.65807190       0.18964460       0.00000000
Si       2.67496463       2.69257412      -0.00137707       0.00000000
Si       2.70269021       0.01461213       2.74011970       0.00000000
Si       2.75944458      -2.68646537       0.00912308       0.00000000
