10
Lattice="16.290000149 0.0 0.0 0.0 16.290000149 0.0 0.0 0.0 29.1751946751" Properties=species:S:1:pos:R:3:initial_magmoms:R:1 pbc="T T T"
Si      -1.35185987       1.41063256      -1.31282541       0.00000000
Si       1.16870977       1.47041686       1.45240829       0.00000000
Si      -1.49168509      -1.19751049       1.43017096       0.00000000
Si       1.00106938      -1.24273153      -1.84401818       0.00000000
Si      -2.46230683      -0.28457001      -2.57138496       0.00000000
Si      -1.05652054      -2.24290496      -2.58252988       0.00000000
Si       2.39391326       0.49915818      -2.74982045       0.00000000
Si      -0.13045032      -2.53483805       2.81053986       0.00000000
Si       2.54739764       0.11978037       2.80846551       0.00000000
Si       2.46734858       2.95849209       0.18536664       0.00000000
