10
Lattice="16.290000149 0.0 0.0 0.0 16.290000149 0.0 0.0 0.0 29.1751946751" Properties=species:S:1:pos:R:3:initial_magmoms:R:1 pbc="T T T"
H        1.19179270      -0.65153485       0.66685742       0.00000000
Si      -1.26807877       0.29657574       1.92054472       0.00000000
Si       0.31830660       2.02893581      -1.19066887       0.00000000
Si      -0.95615785      -1.98270479      -0.89092292       0.00000000
H        1.93057679      -0.50277456      -1.70884950       0.00000000
H       -0.70667650      -2.54516591       2.05626772       0.00000000
Si       3.11811780      -1.05023260      -0.93564849       0.00000000
Si      -1.88336837       2.76511350      -0.75283672       0.00000000
Si      -3.31444488      -0.42433821       1.01442152       0.00000000
H        1.10931643       0.19337859      -3.38438093       0.00000000
