10
Lattice="16.290000149 0.0 0.0 0.0 16.290000149 0.0 0.0 0.0 29.1751946751" Properties=species:S:1:pos:R:3:initial_magmoms:R:1 pbc="T T T"
Si      -1.35909100       1.35268903       1.35264955       0.00000000
Si      -1.36049194      -1.34348518      -1.36294839       0.00000000
Si       1.32437701      -1.36365220       1.39291132       0.00000000
Si       1.35513253       1.37748241      -1.35620892       0.00000000
Si       2.69397506      -2.70410907       0.02719128       0.00000000
Si       2.69744483       0.02091636       2.70194395       0.00000000
Si       0.01563840       2.71617833       2.68440966       0.00000000
Si       0.00092853      -2.70670407      -2.70894600       0.00000000
Si      -2.72445365      -2.69108522      -0.01277874       0.00000000
Si      -2.71523351       2.70358616      -0.01560873       0.00000000
