10
Lattice="16.290000149 0.0 0.0 0.0 16.290000149 0.0 0.0 0.0 29.1751946751" Properties=species:S:1:pos:R:3:initial_magmoms:R:1 pbc="T T T"
Si       1.36047565       1.35457867       1.35329141       0.00000000
Si      -1.33059979      -1.35775522       1.38272918       0.00000000
Si       1.37746612      -1.36049194      -1.33578629       0.00000000
Si      -1.37216047       1.34736220      -1.36204396       0.00000000
Si      -2.66556954      -2.73544941       0.03804445       0.00000000
Si      -0.00724905       2.70967862       2.70427797       0.00000000
Si       2.71539641       2.69868287      -0.02170634       0.00000000
Si      -0.02772558       2.67796199      -2.74149677       0.00000000
Si      -2.71793765       0.00454491       2.70524075       0.00000000
Si       2.71072118      -0.00495216       2.71778608       0.00000000
