10
Lattice="16.290000149 0.0 0.0 0.0 16.290000149 0.0 0.0 0.0 29.1751946751" Properties=species:S:1:pos:R:3:initial_magmoms:R:1 pbc="T T T"
Si       1.38956959       1.27220014       1.37848652       0.00000000
Si      -1.63240462       1.18166032      -1.21886728       0.00000000
Si       1.24765111      -1.34645485      -1.48471165       0.00000000
Si      -1.33301234      -1.40816789       1.35425360       0.00000000
Si      -2.97123087      -0.79871500      -1.69045513       0.00000000
Si      -2.68014209      -2.62553051      -0.12470995       0.00000000
Si      -0.02883330       2.65458584       2.66228553       0.00000000
Si       2.60662808      -2.72979075      -0.08339788       0.00000000
Si       2.59270013      -0.12318498       2.82139245       0.00000000
Si      -2.76553158      -0.09927126       2.70323875       0.00000000
