10
Lattice="16.290000149 0.0 0.0 0.0 16.290000149 0.0 0.0 0.0 29.1751946751" Properties=species:S:1:pos:R:3:initial_magmoms:R:1 pbc="T T T"
Si       0.17914113      -1.39359485      -0.59937520       0.00000000
Si      -0.51666993       1.27573507      -2.37089302       0.00000000
Si      -0.70511266       1.82667917       1.94114240       0.00000000
Si      -2.54298305       0.94384261       0.75490816       0.00000000
Si      -2.46026243       0.24778719      -1.47416424       0.00000000
Si       1.20290248       2.61635321       0.81993675       0.00000000
Si       2.04335246      -0.77847304       2.07366489       0.00000000
Si       1.00466947      -2.63145404       1.12057546       0.00000000
Si       2.90830260       0.94900654       0.69101624       0.00000000
Si       2.07293510      -1.38786240      -1.94680239       0.00000000
