10
Lattice="16.290000149 0.0 0.0 0.0 16.290000149 0.0 0.0 0.0 29.1751946751" Properties=species:S:1:pos:R:3:initial_magmoms:R:1 pbc="T T T"
Si      -1.36047565      -1.35457867      -1.35329141       0.00000000
Si      -1.36772470       1.35509995       1.35098656       0.00000000
Si       1.35492076       1.34410420      -1.37499775       0.00000000
Si       1.35024553      -1.35953083       1.36449468       0.00000000
Si       2.69052158       2.69570180       0.01829285       0.00000000
Si      -2.69107544      -2.71233389       0.02943777       0.00000000
Si       0.01699047      -2.71507061      -2.68907769       0.00000000
Si      -0.02326212       2.69061932      -2.73342399       0.00000000
Si       2.71565705      -0.00410508       2.71125084       0.00000000
Si      -2.71994295       2.71342532      -0.00831493       0.00000000
