10
Lattice="16.290000149 0.0 0.0 0.0 16.290000149 0.0 0.0 0.0 29.1751946751" Properties=species:S:1:pos:R:3:initial_magmoms:R:1 pbc="T T T"
Si       0.28881193      -0.81023203      -2.15733060       0.00000000
Si      -2.27746582       0.47816037      -0.10943616       0.00000000
Si       1.27916249       1.99360769       0.10666451       0.00000000
Si       1.05664109      -1.54259785       1.47387248       0.00000000
Si      -2.56985504       1.15562076       2.11531831       0.00000000
Si       3.35310757       1.27423802       0.95210330       0.00000000
Si       2.57584650      -0.21879099       2.66970536       0.00000000
Si       1.94503253      -2.46270593      -2.06102328       0.00000000
Si       1.19865731       0.92317060      -3.44278967       0.00000000
Si       2.44705776      -2.87500584       0.14975627       0.00000000
