10
Lattice="16.290000149 0.0 0.0 0.0 16.290000149 0.0 0.0 0.0 29.1751946751" Properties=species:S:1:pos:R:3:initial_magmoms:R:1 pbc="T T T"
Si      -1.34315938      -1.34719576      -1.38830164       0.00000000
Si       1.30924360       1.34627566      -1.42170724       0.00000000
Si       1.42724836      -1.36095947       1.29672070       0.00000000
Si      -1.41858208       1.35414373       1.33736175       0.00000000
Si       0.07384257      -2.64671289       2.66477476       0.00000000
Si      -2.68149530      -2.69517564      -0.01797192       0.00000000
Si       2.60625341       2.78043098      -0.10882348       0.00000000
Si      -0.09977625       2.82166097       2.61039219       0.00000000
Si       2.73287558      -0.01716803      -2.72029515       0.00000000
Si       2.68276754      -0.04491642       2.76974711       0.00000000
