10
Lattice="16.290000149 0.0 0.0 0.0 16.290000149 0.0 0.0 0.0 29.1751946751" Properties=species:S:1:pos:R:3:initial_magmoms:R:1 pbc="T T T"
Si       1.35340579       1.28575342      -1.36805405       0.00000000
Si      -1.52529787       1.25955910       1.22273241       0.00000000
Si       1.03513177      -0.82401337       1.94934063       0.00000000
Si      -1.40380705      -1.39984858      -1.30077605       0.00000000
Si      -0.77892265      -2.12631743       2.60449880       0.00000000
Si      -2.43514325      -0.47384352       2.50819149       0.00000000
Si       2.60892497       2.60179647       0.10497235       0.00000000
Si      -0.07384257       2.64671289      -2.66477476       0.00000000
Si       2.71831232      -0.08749359      -2.70985043       0.00000000
Si      -2.75533787      -0.04846275      -2.68274668       0.00000000
