10
Lattice="16.290000149 0.0 0.0 0.0 16.290000149 0.0 0.0 0.0 29.1751946751" Properties=species:S:1:pos:R:3:initial_magmoms:R:1 pbc="T T T"
Si      -0.94332133       1.88788070      -0.89130220       0.00000000
Si      -1.77604985      -1.47002590       0.33676927       0.00000000
Si       0.39284964       0.63319231       2.23263177       0.00000000
Si       1.77301991      -0.95837329      -1.24928184       0.00000000
H       -0.38473722      -1.19995399      -2.56502477       0.00000000
H        0.02419065       3.00423441       0.44416316       0.00000000
Si       1.88439464      -1.22504059       2.59034883       0.00000000
Si       2.51172254      -2.28579653       0.54195842       0.00000000
Si      -2.46270593       0.87078196      -2.35382553       0.00000000
Si      -1.06329718      -3.50622542      -0.44334626       0.00000000
