10
Lattice="16.290000149 0.0 0.0 0.0 16.290000149 0.0 0.0 0.0 29.1751946751" Properties=species:S:1:pos:R:3:initial_magmoms:R:1 pbc="T T T"
Si       1.36368478       1.36129015      -1.32954280       0.00000000
Si      -1.34975683       1.36609570       1.35483769       0.00000000
Si       1.38517129      -1.33729498       1.34958616       0.00000000
Si      -1.33560082      -1.35159760      -1.39329060       0.00000000
Si       2.70005123      -0.08042373      -2.61789022       0.00000000
Si      -0.02249649       2.71834490      -2.66722547       0.00000000
Si      -2.69052158      -2.69570180      -0.01829285       0.00000000
Si       0.02513547      -2.69980688       2.69295799       0.00000000
Si      -2.71757927       0.02217069       2.69768438       0.00000000
Si       0.01765836       2.72780939       2.70728301       0.00000000
