10
Lattice="16.290000149 0.0 0.0 0.0 16.290000149 0.0 0.0 0.0 29.1751946751" Properties=species:S:1:pos:R:3:initial_magmoms:R:1 pbc="T T T"
Si      -0.71487037      -0.12890277      -1.30465636       0.00000000
H        1.58728132       0.96246208      -1.02226965       0.00000000
H       -2.12977091       0.67950478       0.37405517       0.00000000
H        1.28961415       1.81863191      -0.71695123       0.00000000
H        1.87952393       0.18582003      -1.46865012       0.00000000
Si      -1.53060841       0.77359582       1.77656513       0.00000000
Si       0.91201195      -0.93053368      -2.80411549       0.00000000
Si       0.33541110       2.30998718       2.10726596       0.00000000
Si       2.24818292      -2.18522207       0.31981848       0.00000000
Si       0.25231581      -2.77342140       1.48980214       0.00000000
