10
Lattice="16.290000149 0.0 0.0 0.0 16.290000149 0.0 0.0 0.0 29.1751946751" Properties=species:S:1:pos:R:3:initial_magmoms:R:1 pbc="T T T"
Si      -0.96127291       1.43568658       1.52040692       0.00000000
Si       1.58102596      -1.29748222       1.09080218       0.00000000
Si       1.58729761       0.96728392      -1.46955456       0.00000000
Si      -1.86601952      -1.53639136      -0.33070083       0.00000000
H        0.95420305      -0.49135527      -2.82421719       0.00000000
H       -0.33541110      -2.30998718      -2.10726596       0.00000000
H       -2.46518201      -1.63048240      -1.73321079       0.00000000
Si      -2.63329481       2.35880831       0.18254919       0.00000000
H       -2.09787509       2.62490546      -1.20300998       0.00000000
Si       0.20862603      -2.75128329       2.26600820       0.00000000
