10
Lattice="16.290000149 0.0 0.0 0.0 16.290000149 0.0 0.0 0.0 29.1751946751" Properties=species:S:1:pos:R:3:initial_magmoms:R:1 pbc="T T T"
Si      -1.36003582      -1.36251190       1.34337184       0.00000000
Si       1.35500221       1.35330805       1.36043933       0.00000000
Si       1.36829485      -1.38031687      -1.32195725       0.00000000
Si      -1.38517129       1.33729498      -1.34958616       0.00000000
Si      -0.02148651       2.69858513      -2.67912895       0.00000000
Si       2.71797023      -0.03992679       2.66550414       0.00000000
Si      -0.00508248      -2.70767495      -2.68502234       0.00000000
Si      -2.73357605       0.00343719       2.67513195       0.00000000
Si      -0.00866628      -2.73844677       2.68537244       0.00000000
Si       2.72922662       2.69575067       0.01820532       0.00000000
