10
Lattice="16.290000149 0.0 0.0 0.0 16.290000149 0.0 0.0 0.0 29.1751946751" Properties=species:S:1:pos:R:3:initial_magmoms:R:1 pbc="T T T"
Si      -1.30075651      -0.59140846      -0.87169647       0.00000000
Si       1.17232615       0.50619546       1.09246516       0.00000000
Si      -0.06809220      -2.43902027      -1.53764946       0.00000000
Si      -0.36870786       1.76761163       2.29804256       0.00000000
Si       2.84469829       1.29354004      -0.34814760       0.00000000
Si      -3.08877951      -1.17708283       0.56973320       0.00000000
Si      -2.35849880       0.73461385      -2.47767423       0.00000000
Si       2.30971025      -0.99885394       2.47673771       0.00000000
Si      -1.84362077       2.97615045       0.84543879       0.00000000
H       -0.26692794       0.80265718      -3.53253257       0.00000000
