10
Lattice="16.290000149 0.0 0.0 0.0 16.290000149 0.0 0.0 0.0 29.1751946751" Properties=species:S:1:pos:R:3:initial_magmoms:R:1 pbc="T T T"
Si      -0.73101376       2.19140087       0.39832893       0.00000000
Si       1.90838981       0.55001882       1.27311797       0.00000000
Si      -1.62074098      -1.47930632       0.94565559       0.00000000
Si       0.72756028       0.34344044      -2.26358665       0.00000000
H        1.37845981      -2.26863827      -1.33858711       0.00000000
H        1.72924868       1.94361367       1.87249317       0.00000000
Si       2.53876394       1.66995796      -1.65872652       0.00000000
Si       1.21257874       3.21934875      -0.49839985       0.00000000
H       -0.58828078      -2.55951252      -2.62813071       0.00000000
Si      -0.40203720      -2.88861939       2.39726010       0.00000000
