10
Lattice="16.290000149 0.0 0.0 0.0 16.290000149 0.0 0.0 0.0 29.1751946751" Properties=species:S:1:pos:R:3:initial_magmoms:R:1 pbc="T T T"
Si      -1.03202038       1.50188914       1.46412797       0.00000000
Si       0.92867662       1.82949734      -1.16864160       0.00000000
Si       1.51772302      -1.27804825       1.31696829       0.00000000
Si      -1.38000736      -1.44819730      -1.31157088       0.00000000
H       -1.95955670       2.27379080       0.53944935       0.00000000
H        2.76307725      -0.92203030      -1.29622472       0.00000000
Si       2.33803856      -2.22195602      -0.63674862       0.00000000
Si       0.46462338      -2.98783038      -1.89405364       0.00000000
Si       0.87392593       2.80060941       2.09299929       0.00000000
Si       2.50276304       2.56298717       0.43759874       0.00000000
