10
Lattice="16.290000149 0.0 0.0 0.0 16.290000149 0.0 0.0 0.0 29.1751946751" Properties=species:S:1:pos:R:3:initial_magmoms:R:1 pbc="T T T"
Si       1.57617154      -1.08752041       1.32554579       0.00000000
Si      -1.23222448      -1.13568994      -1.62640040       0.00000000
Si      -1.59617566      -0.08094501       1.79672519       0.00000000
Si       1.29512017       1.59195655      -1.27542281       0.00000000
H        0.92633086      -1.90283492       2.41203004       0.00000000
H       -0.50736834      -2.81672022       1.84585622       0.00000000
Si      -1.71219305       2.22784974       2.01772729       0.00000000
Si      -2.64587069      -2.46435122      -0.38870112       0.00000000
Si       2.81421156      -2.45089568      -0.09610309       0.00000000
Si       0.12878874      -2.50593959      -2.88921953       0.00000000
