10
Lattice="16.290000149 0.0 0.0 0.0 16.290000149 0.0 0.0 0.0 29.1751946751" Properties=species:S:1:pos:R:3:initial_magmoms:R:1 pbc="T T T"
H        0.96751198       1.11635371       1.33546536       0.00000000
Si       0.94332133      -1.88788070       0.89130220       0.00000000
Si      -1.51938460      -1.01709874      -1.46252333       0.00000000
Si      -1.62688231       0.80163091       1.49945913       0.00000000
Si       1.65802880       1.53070615      -0.77369699       0.00000000
H        0.67526938       1.89299576       1.78184584       0.00000000
H       -0.91201195       0.93053368       2.80411549       0.00000000
Si      -1.99055657       2.73533538       0.14141217       0.00000000
Si       0.12812085       3.31162671      -0.86002639       0.00000000
H        0.37760220       2.74916559       2.08716425       0.00000000
