10
Lattice="16.290000149 0.0 0.0 0.0 16.290000149 0.0 0.0 0.0 29.1751946751" Properties=species:S:1:pos:R:3:initial_magmoms:R:1 pbc="T T T"
Si       1.81649792      -0.90582175       1.13946640       0.00000000
Si      -0.85494808       1.78961942       1.29141082       0.00000000
Si       1.12984183       1.43498611      -1.55112840       0.00000000
Si      -1.02027529      -2.15223482      -0.39771625       0.00000000
H       -1.91342342      -0.59098492      -1.89411199       0.00000000
Si       2.64922643       2.45208485      -0.08860507       0.00000000
Si      -0.03409497      -2.56039055      -2.54743212       0.00000000
Si      -1.95800915       0.60532012       2.98231757       0.00000000
Si       1.02234412       3.25371576       1.41085406       0.00000000
H        3.20781054      -0.63574984      -1.76232763       0.00000000
