10
Lattice="16.290000149 0.0 0.0 0.0 16.290000149 0.0 0.0 0.0 29.1751946751" Properties=species:S:1:pos:R:3:initial_magmoms:R:1 pbc="T T T"
Si      -1.42667821       1.44329401       1.12648344       0.00000000
Si      -1.35909100      -1.30857571      -1.38914772       0.00000000
Si       1.35008263       1.39155697      -1.34290504       0.00000000
Si       1.34444629      -1.30978117       1.43346484       0.00000000
H       -0.58384990       2.38345508       1.93168964       0.00000000
Si      -2.69930189      -2.64209141      -0.01683409       0.00000000
Si       0.01404198      -2.66896991      -2.70830415       0.00000000
Si       2.72554508      -2.66646125       0.08489982       0.00000000
Si       2.73176787       0.04680117      -2.67968328       0.00000000
Si      -2.72235224       2.73582408      -0.30286770       0.00000000
