10
Lattice="16.290000149 0.0 0.0 0.0 16.290000149 0.0 0.0 0.0 29.1751946751" Properties=species:S:1:pos:R:3:initial_magmoms:R:1 pbc="T T T"
Si      -1.23266431       1.84761182       0.66595299       0.00000000
Si      -1.52959843      -0.74466478      -1.60218499       0.00000000
Si       1.59783724       0.71039062      -1.58103297       0.00000000
Si       0.05823675      -1.46932543       1.93160211       0.00000000
H        0.06809220       2.43902027       1.53764946       0.00000000
H        0.15374502      -2.81704927      -0.70825703       0.00000000
H        1.52231680      -0.33293502      -2.68082111       0.00000000
Si      -2.76586284      -2.05335452      -0.11112832       0.00000000
Si       2.30224943      -1.97100857       2.21868603       0.00000000
Si      -3.02114343       1.11356812      -1.95990205       0.00000000
