10
Lattice="16.290000149 0.0 0.0 0.0 16.290000149 0.0 0.0 0.0 29.1751946751" Properties=species:S:1:pos:R:3:initial_magmoms:R:1 pbc="T T T"
Si       1.52959843       0.74466478       1.60218499       0.00000000
Si      -1.23626440      -1.30868974       1.49105667       0.00000000
Si       0.62732791      -1.06075594      -2.04839042       0.00000000
Si      -1.49154499       1.85823290      -0.35771706       0.00000000
H        1.68334346      -2.07238450       0.89392796       0.00000000
H        3.05191524       0.41172975      -1.07863612       0.00000000
Si      -1.88439464       1.22504059      -2.59034883       0.00000000
Si       3.12743568       1.45505539       0.02115202       0.00000000
Si       0.29693412       2.59227659       2.26813798       0.00000000
Si      -2.56244960       0.24070104       2.65138334       0.00000000
