10
Lattice="16.290000149 0.0 0.0 0.0 16.290000149 0.0 0.0 0.0 29.1751946751" Properties=species:S:1:pos:R:3:initial_magmoms:R:1 pbc="T T T"
Si      -1.40564896       1.16229151      -1.46074365       0.00000000
Si      -1.46382055      -1.17460675       1.41219904       0.00000000
Si       1.46471259      -1.27190692      -1.34591008       0.00000000
Si       1.21531106       1.49892436       1.39268375       0.00000000
H       -2.28874616       1.92098198      -0.48057381       0.00000000
Si       2.65798931       0.41819688      -2.53374896       0.00000000
Si      -0.07332243      -2.53091216       2.76833211       0.00000000
Si      -2.85914052      -2.49303791       0.04172053       0.00000000
Si       2.60164220       0.16166196       2.76695504       0.00000000
Si      -0.24148410       2.78865255      -2.63988831       0.00000000
