10
Lattice="16.290000149 0.0 0.0 0.0 16.290000149 0.0 0.0 0.0 29.1751946751" Properties=species:S:1:pos:R:3:initial_magmoms:R:1 pbc="T T T"
Si       1.28262574      -1.41740920       1.36262747       0.00000000
Si      -1.32230818       1.08541900       1.62219917       0.00000000
Si       1.32178690       1.32512635      -1.43804535       0.00000000
Si      -1.40281336      -1.36420606      -1.32475806       0.00000000
H       -2.50984919       1.63287703       0.84899817       0.00000000
Si       2.70792419       0.01969461       2.52733041       0.00000000
Si      -2.01666944      -0.76730788       3.04256435       0.00000000
Si      -0.36007416      -2.46822824       2.79848467       0.00000000
H       -1.89741035       3.24291549      -0.26035944       0.00000000
Si       2.61291928       2.73325025      -0.11757603       0.00000000
