10
Lattice="16.290000149 0.0 0.0 0.0 16.290000149 0.0 0.0 0.0 29.1751946751" Properties=species:S:1:pos:R:3:initial_magmoms:R:1 pbc="T T T"
H       -0.29224260       0.77664205       0.44638048       0.00000000
H       -0.58990978       1.63281187       0.75169889       0.00000000
Si      -0.96751198      -1.11635371      -1.33546536       0.00000000
Si       0.69051682       0.41435244      -2.10916235       0.00000000
H       -1.87952393      -0.18582003       1.46865012       0.00000000
Si      -2.59439429      -0.31472280       0.16399377       0.00000000
Si       1.88781554       1.55181799       1.52387877       0.00000000
Si       2.54052326       1.27501831      -0.81985215       0.00000000
Si       0.36865899      -2.37104210       1.78846861       0.00000000
Si       1.09939582      -0.31097610       2.80834589       0.00000000
