10
Lattice="16.290000149 0.0 0.0 0.0 16.290000149 0.0 0.0 0.0 29.1751946751" Properties=species:S:1:pos:R:3:initial_magmoms:R:1 pbc="T T T"
Si      -1.38956959      -1.27220014      -1.37848652       0.00000000
Si       1.20313054      -1.39538512       1.44290593       0.00000000
Si      -1.41840289       1.38238570       1.28379901       0.00000000
Si       1.87541885       0.80003449      -1.19492962       0.00000000
Si       2.51713082      -2.71891180       0.04261621       0.00000000
Si       2.63296901       0.00706986       2.68545705       0.00000000
Si       2.68467347       2.65882124      -0.01211062       0.00000000
Si       3.50858910      -0.93576277      -1.11262814       0.00000000
Si      -2.72258193      -2.68036803      -0.02423292       0.00000000
Si      -0.09769113       2.72297126       2.67900933       0.00000000
