10
Lattice="16.290000149 0.0 0.0 0.0 16.290000149 0.0 0.0 0.0 29.1751946751" Properties=species:S:1:pos:R:3:initial_magmoms:R:1 pbc="T T T"
H        1.37445247       0.56931922       0.26832427       0.00000000
Si      -0.50202522       0.41229990      -2.21077955       0.00000000
Si      -1.39041667       1.33240798       1.32411621       0.00000000
Si      -0.48303108      -2.21249153       0.59849994       0.00000000
H        2.21201912      -1.24362748      -0.19591143       0.00000000
H        2.89466787      -0.27168462       1.45689252       0.00000000
Si       0.57216997      -2.14210244       2.71163012       0.00000000
Si       1.31202919       1.71460397      -2.86593772       0.00000000
Si      -2.79260613      -2.03385539       1.19241938       0.00000000
Si       0.12878874       2.65621484       2.51994909       0.00000000
