10
Lattice="16.290000149 0.0 0.0 0.0 16.290000149 0.0 0.0 0.0 29.1751946751" Properties=species:S:1:pos:R:3:initial_magmoms:R:1 pbc="T T T"
Si      -1.36782244      -1.34392501       1.34284669       0.00000000
Si      -1.38404728       1.34472322      -1.33564041       0.00000000
Si       1.34975683      -1.36609570      -1.35483769       0.00000000
Si       1.36741519       1.36171369       1.35244532       0.00000000
Si       0.00397476       2.70440066      -2.63802110       0.00000000
Si       0.00135207      -2.69995349       2.66988042       0.00000000
Si       2.71344161      -0.00480555      -2.68438049       0.00000000
Si      -2.70848945      -2.70669755      -0.02214397       0.00000000
Si      -2.70021413       2.71643897       0.05321556       0.00000000
Si      -2.68508072       0.01998783       2.73351151       0.00000000
