10
Lattice="16.290000149 0.0 0.0 0.0 16.290000149 0.0 0.0 0.0 29.1751946751" Properties=species:S:1:pos:R:3:initial_magmoms:R:1 pbc="T T T"
Si      -1.34829073      -1.02403828       1.63118513       0.00000000
Si       1.22922712      -1.43017079      -1.41925652       0.00000000
Si      -1.35534430       1.30479643      -1.43037227       0.00000000
Si       1.42646644       1.27128790       1.40726552       0.00000000
Si       0.08272062      -2.65829996       2.55332551       0.00000000
Si      -0.06628401       2.53252487       2.69400830       0.00000000
Si       2.72313807       2.62726751      -0.04218733       0.00000000
Si      -1.44920728       0.69763555       3.44074741       0.00000000
Si      -2.74491390       2.66097152      -0.11775109       0.00000000
Si       2.61242732      -0.09501957      -2.80175230       0.00000000
