10
Lattice="16.290000149 0.0 0.0 0.0 16.290000149 0.0 0.0 0.0 29.1751946751" Properties=species:S:1:pos:R:3:initial_magmoms:R:1 pbc="T T T"
H       -0.63309457      -1.45863919      -1.35466264       0.00000000
Si      -1.19449684       1.38310246      -1.49038564       0.00000000
Si      -1.58729761      -0.96728392       1.46955456       0.00000000
Si       1.38000736       1.44819730       1.31157088       0.00000000
Si       1.84463075      -1.53963307      -0.58248276       0.00000000
H       -0.33542739      -2.31480902      -1.65998105       0.00000000
H        1.26537463       0.43499187      -2.74407294       0.00000000
Si      -0.00627165      -2.26476614       2.56035673       0.00000000
Si       0.07358193       1.08652672      -3.41093036       0.00000000
Si       1.05621103      -3.40242717       0.70198436       0.00000000
