10
Lattice="16.290000149 0.0 0.0 0.0 16.290000149 0.0 0.0 0.0 29.1751946751" Properties=species:S:1:pos:R:3:initial_magmoms:R:1 pbc="T T T"
Si       1.35052246       1.38668626       1.32262828       0.00000000
Si      -1.34134142       1.35839053      -1.36102283       0.00000000
Si       1.38766366      -1.35237952      -1.33181846       0.00000000
Si      -1.34802195      -1.36655182       1.36376530       0.00000000
Si       2.65960316      -0.04194675       2.61879465       0.00000000
Si      -2.66770069       2.70848945       0.03460178       0.00000000
Si       0.03818376      -2.71412579      -2.68105451       0.00000000
Si      -2.69329088       0.00504990      -2.72184144       0.00000000
Si      -2.69347007      -2.72702747       0.01207853       0.00000000
Si       0.01739772       2.71018361      -2.72280422       0.00000000
