10
Lattice="16.290000149 0.0 0.0 0.0 16.290000149 0.0 0.0 0.0 29.1751946751" Properties=species:S:1:pos:R:3:initial_magmoms:R:1 pbc="T T T"
Si      -1.75050713      -0.32110848       1.48708885       0.00000000
Si       0.11601738      -2.30879475      -0.22100210       0.00000000
Si      -0.98937316       0.86625497      -1.97985789       0.00000000
Si       1.82848736       1.18979229       1.01407142       0.00000000
H       -0.43018632       2.66988541       1.50789076       0.00000000
Si      -2.50611878       2.18647966      -0.77880265       0.00000000
Si       1.71219305      -2.22784974      -2.01772729       0.00000000
Si      -1.07043220       3.52067954       0.43535225       0.00000000
Si      -1.10874628       0.36361398       3.62956927       0.00000000
Si       0.41381487      -3.20901274       2.02184099       0.00000000
