10
Lattice="16.290000149 0.0 0.0 0.0 16.290000149 0.0 0.0 0.0 29.1751946751" Properties=species:S:1:pos:R:3:initial_magmoms:R:1 pbc="T T T"
Si       1.31866654      -1.33819093      -1.40458140       0.00000000
Si       1.38996950       1.37634211       1.31192098       0.00000000
Si      -1.34465889       1.36480879      -1.37135085       0.00000000
Si      -1.35088167      -1.34845363       1.39323225       0.00000000
Si      -0.00738020       2.69755886       2.62850999       0.00000000
Si       2.64595131      -2.69583212      -0.03571044       0.00000000
Si      -2.70265847      -2.67564881      -0.00752720       0.00000000
Si       2.66668848       0.02836089      -2.76834670       0.00000000
Si      -2.72634413       2.70956459      -0.03457261       0.00000000
Si      -2.70990752       0.02433726      -2.74305180       0.00000000
