10
Lattice="16.2900001489832 0.0 0.0 0.0 16.2900001489832 0.0 0.0 0.0 29.20415829535462" Properties=species:S:1:pos:R:3:initial_magmoms:R:1 pbc="T T T"
Si       0.49606308      -1.91496445       1.42490009       0.00000000
Si       0.10878462       1.57111187       1.90022697       0.00000000
Si      -2.47946834      -0.11593593      -0.19108281       0.00000000
Si       1.24095592      -1.48329574      -1.71270707       0.00000000
Si       1.65265310       1.82258060      -0.93094095       0.00000000
Si       0.04460202       2.62209381      -2.52881727       0.00000000
Si      -0.71438167      -3.59596215       0.29072740       0.00000000
Si      -1.73379359       0.83161102       3.30757536       0.00000000
Si      -2.88666948      -2.49879806       0.33701599       0.00000000
Si      -3.22887351       1.49321309       1.54974786       0.00000000
