10
Lattice="16.2900001489832 0.0 0.0 0.0 16.2900001489832 0.0 0.0 0.0 29.20415829535462" Properties=species:S:1:pos:R:3:initial_magmoms:R:1 pbc="T T T"
Si       2.15194160       0.95231341       0.09213912       0.00000000
Si       0.16847118      -1.12181249       2.08678313       0.00000000
Si      -1.64379133       1.77500566       0.15922107       0.00000000
Si      -0.93693565      -1.43435243      -1.76839940       0.00000000
H        1.88121809      -2.14221810       0.32031121       0.00000000
Si      -2.90274771       0.71467163       1.78209615       0.00000000
Si      -2.34328394       1.56351259      -2.08649109       0.00000000
Si      -3.12921129      -0.66199466      -1.67783730       0.00000000
Si      -3.41233149      -1.18884584       0.61442629       0.00000000
Si      -1.38655594       0.02260726       3.39556749       0.00000000
