10
Lattice="16.2900001489832 0.0 0.0 0.0 16.2900001489832 0.0 0.0 0.0 29.20415829535462" Properties=species:S:1:pos:R:3:initial_magmoms:R:1 pbc="T T T"
Si      -1.12544353      -2.08045456       0.33135038       0.00000000
Si       2.22610997      -0.35676078      -0.81812529       0.00000000
Si      -1.52259862       0.96836069      -1.62340075       0.00000000
Si       0.77548546       1.33891747       1.87987167       0.00000000
H       -0.58855771      -2.18542732      -2.39675607       0.00000000
Si       1.57791457       3.06938463       0.25223632       0.00000000
Si       1.64206459      -0.41576316      -3.11240397       0.00000000
Si       3.34448364       1.61727773      -0.19566786       0.00000000
Si      -0.52517331       0.39876291      -3.72023011       0.00000000
Si      -1.97377298      -2.08571623       2.51842059       0.00000000
