10
Lattice="16.2900001489832 0.0 0.0 0.0 16.2900001489832 0.0 0.0 0.0 29.20415829535462" Properties=species:S:1:pos:R:3:initial_magmoms:R:1 pbc="T T T"
Si       1.33499809      -1.34465806       1.40200403       0.00000000
Si      -1.34438113       1.34978941       1.39020555       0.00000000
Si       1.37412667       1.42094413      -1.31783764       0.00000000
Si      -1.36616086      -1.38940669      -1.36853314       0.00000000
Si       2.69047271      -0.00213399      -2.62975268       0.00000000
Si      -2.69742854       2.71016732       0.01375516       0.00000000
Si       2.69407280      -2.72730115       0.05192499       0.00000000
Si      -2.70088202      -2.72560047       0.05186659       0.00000000
Si       0.03191211       2.69545745       2.74235808       0.00000000
Si      -2.68133402       0.01037673       2.78560943       0.00000000
