10
Lattice="16.2900001489832 0.0 0.0 0.0 16.2900001489832 0.0 0.0 0.0 29.20415829535462" Properties=species:S:1:pos:R:3:initial_magmoms:R:1 pbc="T T T"
Si      -1.57056778      -0.41591628       1.67792491       0.00000000
Si      -0.79464250       0.40324266      -2.16271394       0.00000000
Si       1.74281825       1.18812745       1.07004036       0.00000000
Si       0.83590507      -2.13367579      -0.59801355       0.00000000
H       -0.33104538      -3.11044521      -0.54486198       0.00000000
H       -0.98121187      -0.50468049       3.07855635       0.00000000
Si       2.36983664      -2.40028265       1.15642626       0.00000000
Si       3.46535544      -0.37255230       0.75799393       0.00000000
Si      -1.79475077      -1.59886514      -2.84924530       0.00000000
Si      -2.68894145      -2.38995479       1.05546748       0.00000000
