10
Lattice="16.2900001489832 0.0 0.0 0.0 16.2900001489832 0.0 0.0 0.0 29.20415829535462" Properties=species:S:1:pos:R:3:initial_magmoms:R:1 pbc="T T T"
Si       1.13507092       1.12210408      -0.07593081       0.00000000
Si      -1.31720941      -1.47009106       0.14683851       0.00000000
Si       0.48936789       1.76286309       2.15713595       0.00000000
Si      -1.47608578       0.47115567       2.55258946       0.00000000
Si      -0.02635722       2.58480600      -1.50795671       0.00000000
Si      -2.72473058      -0.18564084      -1.25484427       0.00000000
Si       0.12794166      -2.82147690      -1.33851419       0.00000000
Si       2.84740732      -0.09575262      -1.31401190       0.00000000
Si      -1.31535235       1.12293487      -2.76811614       0.00000000
Si       1.56967183      -1.49973886      -2.74113150       0.00000000
