10
Lattice="16.2900001489832 0.0 0.0 0.0 16.2900001489832 0.0 0.0 0.0 29.20415829535462" Properties=species:S:1:pos:R:3:initial_magmoms:R:1 pbc="T T T"
Si      -0.98688079       1.64001205      -1.33054145       0.00000000
Si      -1.02390796      -1.69942169      -1.22613659       0.00000000
Si       2.26522226      -0.52496154      -0.41353088       0.00000000
Si      -0.29789523       0.63799786       2.27374815       0.00000000
H        0.05325201       1.75112615      -2.45224397       0.00000000
H       -0.45432810       2.15951645       2.07772984       0.00000000
Si       0.34197597      -3.42544494      -0.62079279       0.00000000
Si       2.08238330       1.03804768       2.81209761       0.00000000
Si       2.10763280      -2.38703888      -1.82566875       0.00000000
Si      -2.78552487       0.48192336       2.43142140       0.00000000
