10
Lattice="16.2900001489832 0.0 0.0 0.0 16.2900001489832 0.0 0.0 0.0 29.20415829535462" Properties=species:S:1:pos:R:3:initial_magmoms:R:1 pbc="T T T"
Si      -1.08380629      -1.21930651      -1.71054596       0.00000000
Si       0.77164102      -1.99190864       1.08808853       0.00000000
Si      -1.93064195       0.77217859       1.28530421       0.00000000
Si       1.49332060       1.38932524      -1.47609498       0.00000000
Si      -2.47622663      -2.56438811      -0.41557517       0.00000000
Si      -2.55223577       2.72135855      -0.07283517       0.00000000
Si       2.76555333      -2.61741206      -0.12440971       0.00000000
Si      -3.54131571      -1.02250702       1.02033488       0.00000000
Si      -2.42351219       0.19015317      -3.00534152       0.00000000
Si       2.43230879       3.12168531      -0.15857858       0.00000000
