10
Lattice="16.2900001489832 0.0 0.0 0.0 16.2900001489832 0.0 0.0 0.0 29.20415829535462" Properties=species:S:1:pos:R:3:initial_magmoms:R:1 pbc="T T T"
Si      -1.33783255      -1.35321031       1.41017243       0.00000000
Si       1.38088702      -1.37911141      -1.38202254       0.00000000
Si       1.37013562       1.37023336       1.41440703       0.00000000
Si      -1.47823606       1.30805443      -1.38408728       0.00000000
Si      -2.67934664      -2.73004112      -0.01473934       0.00000000
Si       2.74009205       2.69728193      -0.01314771       0.00000000
Si      -2.71010216       2.74185137       0.01589874       0.00000000
Si      -0.15636771       2.79836139      -2.65417028       0.00000000
Si      -2.69488730       0.02803509       2.77716067       0.00000000
Si       2.54951534      -0.02601513      -2.91464217       0.00000000
