10
Lattice="16.2900001489832 0.0 0.0 0.0 16.2900001489832 0.0 0.0 0.0 29.20415829535462" Properties=species:S:1:pos:R:3:initial_magmoms:R:1 pbc="T T T"
H        1.97198597      -1.25059960      -0.06103669       0.00000000
Si      -1.87509305       1.41677389      -0.12099283       0.00000000
Si       1.03268827       1.04894569       1.84678336       0.00000000
Si      -0.71053723      -2.12708306       0.99860699       0.00000000
Si       1.49138209       1.09907002      -1.95355376       0.00000000
H        0.91805554       2.42377283      -1.42233012       0.00000000
Si      -3.51218919      -0.17669763      -0.43154985       0.00000000
Si       0.42158520      -1.95367601       3.15463318       0.00000000
Si      -3.06734187      -1.75599686       1.29654781       0.00000000
Si      -2.19618524       2.42279543       1.96076719       0.00000000
