10
Lattice="16.2900001489832 0.0 0.0 0.0 16.2900001489832 0.0 0.0 0.0 29.20415829535462" Properties=species:S:1:pos:R:3:initial_magmoms:R:1 pbc="T T T"
Si       1.36062226      -1.25066476      -1.49093069       0.00000000
Si       1.61262856       0.57581893       1.69241018       0.00000000
Si      -1.29062413       1.49244094      -1.42957275       0.00000000
Si      -1.47681883      -1.36388026       1.37814423       0.00000000
Si       2.56873754      -2.69591357      -0.02511558       0.00000000
Si      -2.77377978      -2.61576677      -0.14473581       0.00000000
Si       3.50772573      -0.96355351       1.29240082       0.00000000
Si       0.02301777      -2.54177759      -2.92076628       0.00000000
Si      -2.82190044       0.14380812       2.69396679       0.00000000
Si      -2.67731039       0.17014905      -2.88268406       0.00000000
