10
Lattice="16.2900001489832 0.0 0.0 0.0 16.2900001489832 0.0 0.0 0.0 29.20415829535462" Properties=species:S:1:pos:R:3:initial_magmoms:R:1 pbc="T T T"
Si       2.19227564      -0.77235778      -0.09056209       0.00000000
Si      -0.28312020      -0.52685118       2.29226359       0.00000000
Si      -1.70077376      -0.90782542      -1.39698091       0.00000000
Si       0.78592735       2.22550724      -0.40865379       0.00000000
Si       1.44953308      -3.03002148       0.13620819       0.00000000
Si       1.48541995       2.43700031       1.83705837       0.00000000
Si      -0.36694854      -1.10490184      -3.37921316       0.00000000
Si       3.12921129       0.66199466       1.67783730       0.00000000
Si      -2.52853382      -0.91919584       2.45148466       0.00000000
Si      -0.70915258       2.88710931      -2.16648128       0.00000000
