10
Lattice="16.2900001489832 0.0 0.0 0.0 16.2900001489832 0.0 0.0 0.0 29.20415829535462" Properties=species:S:1:pos:R:3:initial_magmoms:R:1 pbc="T T T"
Si      -1.32025564      -1.35212540      -1.40422354       0.00000000
Si       1.21417516      -1.48422101       1.37218658       0.00000000
Si       1.39354435       1.37506498      -1.34812236       0.00000000
Si      -1.60642207       1.10184909       1.37639198       0.00000000
Si       2.50317029      -0.02234988       2.63234601       0.00000000
Si      -2.68394042      -2.62131189       0.03635918       0.00000000
Si      -2.67147857       2.70147824      -0.03446091       0.00000000
Si      -3.50495643      -0.75801769       1.33398754       0.00000000
Si      -2.71767701       0.00419956      -2.73207821       0.00000000
Si       0.03256371       2.72172671      -2.73085164       0.00000000
