10
Lattice="16.2900001489832 0.0 0.0 0.0 16.2900001489832 0.0 0.0 0.0 29.20415829535462" Properties=species:S:1:pos:R:3:initial_magmoms:R:1 pbc="T T T"
Si      -1.51011559      -1.28995624      -1.24579098       0.00000000
Si       1.28350540       1.44365239      -1.35536499       0.00000000
Si      -1.28264203       1.62458542       1.14199941       0.00000000
Si       1.60805107      -0.79951321       1.59787632       0.00000000
Si      -0.04460202      -2.62209381       2.52881727       0.00000000
Si      -0.04109967      -2.56646672      -2.60077632       0.00000000
Si       2.39806721       2.78694210       0.20086620       0.00000000
Si       0.40415490       3.41244552       1.41336444       0.00000000
Si       2.66030363       0.11502369      -2.69311987       0.00000000
Si       3.26378298       1.11485503       1.60129320       0.00000000
