10
Lattice="16.2900001489832 0.0 0.0 0.0 16.2900001489832 0.0 0.0 0.0 29.20415829535462" Properties=species:S:1:pos:R:3:initial_magmoms:R:1 pbc="T T T"
Si       0.03388320       0.00513787       2.30794622       0.00000000
Si      -0.27227106       2.15653864      -0.80209221       0.00000000
Si      -1.64946026      -1.46290392      -0.72402949       0.00000000
Si       1.97664491      -1.19232701      -0.66573799       0.00000000
H        2.77535991       0.28342320       1.29266366       0.00000000
Si      -1.01670778      -0.91792196      -3.00437778       0.00000000
Si      -0.98412778      -3.13564258       0.85390038       0.00000000
Si      -0.64446499       1.47388989      -3.06567731       0.00000000
Si       2.17916219       0.84650497       2.58182282       0.00000000
Si      -0.58259557      -2.12833413       2.93165943       0.00000000
