10
Lattice="16.2900001489832 0.0 0.0 0.0 16.2900001489832 0.0 0.0 0.0 29.20415829535462" Properties=species:S:1:pos:R:3:initial_magmoms:R:1 pbc="T T T"
Si      -1.37679823       1.32862870       1.33775488       0.00000000
Si      -1.40527315      -1.31463559      -1.34753827       0.00000000
Si       1.34993602       1.37857384      -1.35305786       0.00000000
Si       1.06505650      -1.59962914       1.41085289       0.00000000
Si       2.34268121       0.09534537       2.81247726       0.00000000
Si      -2.66030363      -0.11502369       2.69311987       0.00000000
Si       2.67147857      -2.70147824       0.03446091       0.00000000
Si      -2.70140330      -2.68149041       0.09234355       0.00000000
Si       2.65119752       2.73577521       0.02748111       0.00000000
Si      -0.83347786      -3.45949593       1.36844845       0.00000000
