10
Lattice="16.2900001489832 0.0 0.0 0.0 16.2900001489832 0.0 0.0 0.0 29.20415829535462" Properties=species:S:1:pos:R:3:initial_magmoms:R:1 pbc="T T T"
Si       1.72253720      -1.56067975      -0.31204643       0.00000000
Si      -1.74281825      -1.18812745      -1.07004036       0.00000000
Si       0.52717698       2.08904591      -0.97886498       0.00000000
Si      -0.25730055       0.02927313       2.41684853       0.00000000
H        0.63496792      -1.10802952       2.82480142       0.00000000
H        2.73178415      -1.38465001       0.87282468       0.00000000
Si       1.21912732       1.92845909       2.61231196       0.00000000
Si       0.62701840      -3.58841010       0.08638590       0.00000000
Si      -3.31338603      -1.60404373       0.60788455       0.00000000
Si      -0.61421446       2.11559861      -3.02549239       0.00000000
