10
Lattice="16.2900001489832 0.0 0.0 0.0 16.2900001489832 0.0 0.0 0.0 29.20415829535462" Properties=species:S:1:pos:R:3:initial_magmoms:R:1 pbc="T T T"
Si      -2.00492435       1.22474737       0.15148197       0.00000000
Si      -0.71276896      -1.98694019      -1.13954626       0.00000000
Si       0.78648121      -0.31452732       2.25257514       0.00000000
Si      -1.29777544       1.28748016      -2.37587509       0.00000000
Si       1.18985419       1.44355465      -2.53354834       0.00000000
Si      -1.83523142      -0.96379786      -3.07727136       0.00000000
Si      -3.70918416      -0.42805233       0.83117955       0.00000000
Si      -1.08644527      -1.16945911       3.51780441       0.00000000
H        1.64315602      -3.52781130      -0.18681900       0.00000000
Si       1.05380011      -3.43904709      -1.58745043       0.00000000
