10
Lattice="16.2900001489832 0.0 0.0 0.0 16.2900001489832 0.0 0.0 0.0 29.20415829535462" Properties=species:S:1:pos:R:3:initial_magmoms:R:1 pbc="T T T"
Si       1.30126150       1.35720136       1.38053897       0.00000000
Si       1.35410626      -1.35832537      -1.34333287       0.00000000
Si      -1.33779997       1.38254860      -1.35323308       0.00000000
Si      -1.34993602      -1.37857384       1.35305786       0.00000000
Si       2.54734877      -0.01930365       2.80234342       0.00000000
Si      -0.04667085      -2.73111626      -2.67853531       0.00000000
Si       2.75724543      -0.00201996      -2.65480401       0.00000000
Si      -2.72673425      -0.04994514       2.69081274       0.00000000
Si       2.71508690      -2.70498710       0.03939641       0.00000000
Si      -2.69371442       2.73491184       0.02207834       0.00000000
