10
Lattice="16.2900001489832 0.0 0.0 0.0 16.2900001489832 0.0 0.0 0.0 29.20415829535462" Properties=species:S:1:pos:R:3:initial_magmoms:R:1 pbc="T T T"
Si      -0.86571577       1.67208707      -1.40042700       0.00000000
Si      -0.62169157       0.64586593       2.26159922       0.00000000
Si       1.73920187      -0.90448597      -1.48193581       0.00000000
Si      -1.65573191      -1.91436824      -0.00341689       0.00000000
Si       0.50033106      -3.17109288       0.03300070       0.00000000
Si       0.87252499      -2.48844413       2.29658580       0.00000000
Si      -1.98027758       0.32879736      -2.95665819       0.00000000
Si      -2.85962808       2.29759049      -0.18792876       0.00000000
Si      -0.97557553      -1.44736651       3.32013314       0.00000000
Si      -3.26378298      -1.11485503      -1.60129320       0.00000000
