10
Lattice="16.2900001489832 0.0 0.0 0.0 16.2900001489832 0.0 0.0 0.0 29.20415829535462" Properties=species:S:1:pos:R:3:initial_magmoms:R:1 pbc="T T T"
Si      -1.32159142      -1.36858807      -1.39376845       0.00000000
Si       1.38504097      -1.39183390       1.34184346       0.00000000
Si       1.39818700       1.34829073      -1.40781565       0.00000000
Si      -1.47261601       1.29801979       1.40451558       0.00000000
Si      -2.67019166      -2.72601750       0.05122409       0.00000000
Si       2.67963986      -0.01181025       2.76344348       0.00000000
Si       2.75876040       2.69027723      -0.02085177       0.00000000
Si      -2.66447387       0.00329058      -2.78890950       0.00000000
Si       2.77933467      -2.67597461      -0.07032361       0.00000000
Si      -2.66176973       2.79551064      -0.00198588       0.00000000
