10
Lattice="16.2900001489832 0.0 0.0 0.0 16.2900001489832 0.0 0.0 0.0 29.20415829535462" Properties=species:S:1:pos:R:3:initial_magmoms:R:1 pbc="T T T"
Si      -0.93898819      -1.73236007      -1.31751640       0.00000000
Si       0.50795478      -0.60577624       2.30023632       0.00000000
Si      -1.89509717       1.53937243       0.40000936       0.00000000
Si       1.77217283       1.05870340      -1.38249565       0.00000000
H       -0.06537177       0.71892658       2.83145996       0.00000000
Si      -2.14710347      -0.28711125      -2.78333151       0.00000000
Si      -0.86846878       3.65857113       0.64941287       0.00000000
Si       0.58301911       2.55619424      -2.78899712       0.00000000
Si      -3.50772573       0.96355351      -1.29240082       0.00000000
Si       1.32704857       3.31591098       1.52889610       0.00000000
