10
Lattice="16.2900001489832 0.0 0.0 0.0 16.2900001489832 0.0 0.0 0.0 29.20415829535462" Properties=species:S:1:pos:R:3:initial_magmoms:R:1 pbc="T T T"
Si      -1.30041442       1.00374094      -1.64851633       0.00000000
Si      -1.23966901      -2.02274561       0.18833762       0.00000000
Si       2.16595100       0.41215329      -1.05289752       0.00000000
Si      -0.83000809       0.86920183       2.12804861       0.00000000
H       -2.59630022      -1.31694877       0.36338734       0.00000000
H        2.20315736      -0.79856839       1.76644272       0.00000000
H       -2.68029146       1.16598934      -1.03695205       0.00000000
Si      -1.06717420      -2.77474089       2.40829171       0.00000000
Si       2.73470007       2.66411549      -0.56787486       0.00000000
Si      -0.68393566       3.13721294      -2.27222954       0.00000000
