10
Lattice="16.2900001489832 0.0 0.0 0.0 16.2900001489832 0.0 0.0 0.0 29.20415829535462" Properties=species:S:1:pos:R:3:initial_magmoms:R:1 pbc="T T T"
Si       1.35663121      -0.70579684      -0.17504972       0.00000000
Si      -2.04856526       0.07819200      -1.79722390       0.00000000
Si      -1.65172457       0.33446628       2.14311795       0.00000000
Si      -2.44289729       1.31041648       0.18103658       0.00000000
H       -0.08399124       2.48293811      -1.40033939       0.00000000
Si       2.59630022       1.31694877      -0.36338734       0.00000000
Si       1.52912602      -1.45779211       2.04490437       0.00000000
Si       0.85680514      -1.93585475      -2.12282106       0.00000000
Si       0.55530982       0.48931902       2.94354552       0.00000000
Si      -1.98566957      -1.84116098       1.40539171       0.00000000
