10
Lattice="16.2900001489832 0.0 0.0 0.0 16.2900001489832 0.0 0.0 0.0 29.20415829535462" Properties=species:S:1:pos:R:3:initial_magmoms:R:1 pbc="T T T"
Si      -2.19551735       0.34266015      -0.87948323       0.00000000
Si       0.37224279       2.39181185      -0.06129953       0.00000000
Si      -0.63275248      -0.54498196       2.28034829       0.00000000
Si       1.74470789      -0.93120157      -1.46879394       0.00000000
H       -1.39242034      -2.59698440       1.30256387       0.00000000
Si       1.01670778       0.91792196       3.00437778       0.00000000
Si      -1.56504547       1.10357746      -3.02026485       0.00000000
Si      -2.94041019      -0.08900856       2.25812393       0.00000000
Si       0.44512425      -2.25720758      -2.91139174       0.00000000
Si       2.99335269      -0.27440505       2.33863979       0.00000000
