10
Lattice="16.2900001489832 0.0 0.0 0.0 16.2900001489832 0.0 0.0 0.0 29.20415829535462" Properties=species:S:1:pos:R:3:initial_magmoms:R:1 pbc="T T T"
H        0.59619772      -0.56308177      -1.28915916       0.00000000
Si      -2.14527899      -0.84136710      -0.27387660       0.00000000
Si       1.27335673      -1.31446455       1.43047808       0.00000000
Si       0.10712304       2.31636472      -0.47967830       0.00000000
H       -0.26107983       0.31448171       2.86162786       0.00000000
Si       3.28733180      -0.67876358       0.39078084       0.00000000
Si      -2.17916219      -0.84650497      -2.58182282       0.00000000
Si      -0.43645797       2.41837270      -2.76662673       0.00000000
Si      -1.71646103       3.27437962       0.61007487       0.00000000
Si       0.70460767      -3.56642675       0.94545542       0.00000000
