10
Lattice="16.2900001489832 0.0 0.0 0.0 16.2900001489832 0.0 0.0 0.0 29.20415829535462" Properties=species:S:1:pos:R:3:initial_magmoms:R:1 pbc="T T T"
Si       1.60998307       1.09895599       1.29035069       0.00000000
Si      -1.06642486      -1.61587027       1.37180693       0.00000000
Si       1.72685405      -0.96824503      -1.43827559       0.00000000
Si      -1.84546154       1.83575270       0.03177412       0.00000000
Si       0.27680229       2.39303360       2.74804705       0.00000000
Si       0.49665930      -1.65750752      -3.25725659       0.00000000
Si      -2.43519212      -0.33922296       2.80064958       0.00000000
Si       2.92395729       2.35506161      -0.29183715       0.00000000
Si      -2.87106366      -2.62655075       0.16314582       0.00000000
Si       2.97558030      -0.32063607       2.64549080       0.00000000
