10
Lattice="16.2900001489832 0.0 0.0 0.0 16.2900001489832 0.0 0.0 0.0 29.20415829535462" Properties=species:S:1:pos:R:3:initial_magmoms:R:1 pbc="T T T"
Si      -1.36098064       1.34666173      -1.38272928       0.00000000
Si       1.36172998      -1.35542738      -1.39166576       0.00000000
Si       1.33133284       1.39290904       1.39178257       0.00000000
Si      -1.39354435      -1.37506498       1.34812236       0.00000000
Si       2.62871732      -0.08498493       2.70988305       0.00000000
Si       0.04215852       2.70296714      -2.69420042       0.00000000
Si       2.70322778       2.70655094      -0.03443170       0.00000000
Si      -2.71508690       2.70498710      -0.03939641       0.00000000
Si       2.70492194      -2.72016938      -0.02272084       0.00000000
Si      -2.71379999      -2.72719037      -0.05610119       0.00000000
