10
Lattice="16.2900001489832 0.0 0.0 0.0 16.2900001489832 0.0 0.0 0.0 29.20415829535462" Properties=species:S:1:pos:R:3:initial_magmoms:R:1 pbc="T T T"
H        0.93173914      -0.91534000      -0.74745123       0.00000000
Si      -2.11654343      -0.67082221      -0.59576483       0.00000000
Si       0.32775480       2.15500412      -0.80787463       0.00000000
Si       0.53297622      -0.33705639       2.26387715       0.00000000
Si       3.51214032       0.45967122      -0.23033320       0.00000000
Si       1.87621706      -2.24133135       2.08739642       0.00000000
Si       3.05895252      -1.91440245       0.02613772       0.00000000
Si      -3.45082476       1.16292682      -0.09076652       0.00000000
Si      -0.52364205       2.04455792      -2.99900422       0.00000000
Si       1.57828924       1.60419034       3.05320714       0.00000000
