10
Lattice="16.2900001489832 0.0 0.0 0.0 16.2900001489832 0.0 0.0 0.0 29.20415829535462" Properties=species:S:1:pos:R:3:initial_magmoms:R:1 pbc="T T T"
Si       1.37956753       1.38083815       1.32884761       0.00000000
Si       1.38518758      -1.35021295      -1.35697122       0.00000000
Si      -1.34524450       1.35063649      -1.40264652       0.00000000
Si      -1.39787749      -1.37911141       1.35384637       0.00000000
Si       2.60899013      -0.07897392       2.70576527       0.00000000
Si      -0.01472616       2.66497886       2.74101469       0.00000000
Si      -2.72135855       2.68822469       0.00540277       0.00000000
Si       0.05810643      -2.73833274      -2.68149661       0.00000000
Si      -2.69913899      -2.73631278      -0.02669260       0.00000000
Si       2.73357169       2.70977636      -0.05361883       0.00000000
