10
Lattice="16.2900001489832 0.0 0.0 0.0 16.2900001489832 0.0 0.0 0.0 29.20415829535462" Properties=species:S:1:pos:R:3:initial_magmoms:R:1 pbc="T T T"
Si      -0.63693901       0.25313031      -2.20094219       0.00000000
Si      -1.74876410      -0.96260869       1.17386114       0.00000000
Si       0.90433936       1.92832877       0.95535563       0.00000000
Si       1.08294292      -2.16098255      -0.57050323       0.00000000
H        0.09969480      -0.87850342      -2.94132601       0.00000000
Si      -1.22135905      -2.83415052      -0.15606702       0.00000000
Si       2.47925657      -1.35281935       1.29403625       0.00000000
Si       2.45438174       0.77721220       2.37765655       0.00000000
Si       1.55944171       2.89452126      -1.21375402       0.00000000
H        2.97656421       0.30856518      -2.04694866       0.00000000
