10
Lattice="16.2900001489832 0.0 0.0 0.0 16.2900001489832 0.0 0.0 0.0 29.20415829535462" Properties=species:S:1:pos:R:3:initial_magmoms:R:1 pbc="T T T"
Si      -2.15049374       0.86208310       0.40100230       0.00000000
Si       1.00660928       1.41301090      -1.62077238       0.00000000
Si      -0.57772681      -1.95005963      -1.28422366       0.00000000
Si       1.49824312       0.20087199       2.04525482       0.00000000
H        2.63516621      -0.53957367      -0.23474302       0.00000000
Si      -1.67288723       3.20603493       0.31537571       0.00000000
Si      -3.04432605      -1.30318372       1.49256612       0.00000000
Si       2.63793551       2.53900829      -0.18819160       0.00000000
Si       1.86240118      -0.12095325      -3.18725422       0.00000000
Si      -2.92988880      -2.14891166      -1.04434070       0.00000000
