10
Lattice="16.2900001489832 0.0 0.0 0.0 16.2900001489832 0.0 0.0 0.0 29.20415829535462" Properties=species:S:1:pos:R:3:initial_magmoms:R:1 pbc="T T T"
Si       0.89062318       2.15446655      -0.02929177       0.00000000
Si      -2.16280703       0.29150955      -0.89221624       0.00000000
Si      -0.26741664      -0.66878596       2.25713099       0.00000000
Si       1.62634474      -1.09786456      -1.38623378       0.00000000
H        1.10752453       2.26768205      -1.53406523       0.00000000
Si      -2.39379923      -0.09995544       3.01232132       0.00000000
Si      -3.13662324       2.23862069       0.00642491       0.00000000
Si       3.17638713      -2.24898113       0.03606714       0.00000000
Si       0.72200539      -3.02619333      -2.34158941       0.00000000
Si       3.09482310       2.25854336       0.74613704       0.00000000
