10
Lattice="16.2900001489832 0.0 0.0 0.0 16.2900001489832 0.0 0.0 0.0 29.20415829535462" Properties=species:S:1:pos:R:3:initial_magmoms:R:1 pbc="T T T"
Si       1.36500427       1.32022306       1.42385166       0.00000000
Si       2.00510354      -0.94828978      -0.86543603       0.00000000
Si      -1.32395347      -1.49157757       1.30740008       0.00000000
Si      -0.31685679       0.86639995      -2.27731106       0.00000000
Si       1.19176012      -0.76893688      -3.04175911       0.00000000
Si       2.65095317       2.59048469      -0.13787283       0.00000000
Si       1.16963830       2.86956498      -2.27377736       0.00000000
Si      -2.61695594      -0.11901474       2.81505015       0.00000000
Si       0.08866647       2.64864895       2.87702429       0.00000000
Si       3.74220888       0.70248997      -0.99262014       0.00000000
