10
Lattice="16.2900001489832 0.0 0.0 0.0 16.2900001489832 0.0 0.0 0.0 29.20415829535462" Properties=species:S:1:pos:R:3:initial_magmoms:R:1 pbc="T T T"
Si      -0.07221357      -2.28467252      -0.62479376       0.00000000
Si      -2.27541980       0.51539931      -0.53320952       0.00000000
Si       1.36578619       1.41900562      -1.44852625       0.00000000
Si       0.69240646      -0.43899921       2.31863494       0.00000000
H        0.71296444       2.25531794       1.78034390       0.00000000
Si      -2.11064645      -0.21999645      -2.86393499       0.00000000
Si      -0.40568616      -2.00891540      -2.92821334       0.00000000
Si      -3.38623491      -0.21520719       1.45941940       0.00000000
Si       1.86987210      -3.17006661       0.40769005       0.00000000
Si       0.48987288      -2.81784423       2.35779772       0.00000000
