10
Lattice="16.2900001489832 0.0 0.0 0.0 16.2900001489832 0.0 0.0 0.0 29.20415829535462" Properties=species:S:1:pos:R:3:initial_magmoms:R:1 pbc="T T T"
H       -0.11721470       0.65904454      -0.38847371       0.00000000
H       -0.92578189       2.05728041      -0.84534357       0.00000000
Si      -0.18865449      -1.68300137      -1.99397232       0.00000000
Si       0.91996636       0.29336661       2.54809202       0.00000000
Si       1.56270460      -0.11629431      -2.39567551       0.00000000
Si      -1.42308953       0.39589587       2.49564135       0.00000000
Si      -2.81940318      -0.41226732       0.63110186       0.00000000
Si       2.30743454       1.47743785       1.08210168       0.00000000
Si      -2.31337061      -0.65915857      -1.79053615       0.00000000
Si      -0.33826674      -3.16803036      -0.11611573       0.00000000
