10
Lattice="16.2900001489832 0.0 0.0 0.0 16.2900001489832 0.0 0.0 0.0 29.20415829535462" Properties=species:S:1:pos:R:3:initial_magmoms:R:1 pbc="T T T"
Si       0.49006511       1.43777170       0.01518616       0.00000000
H        0.80856719      -1.39823587       0.45686985       0.00000000
H        0.92578189      -2.05728041       0.84534357       0.00000000
Si       0.85479984       1.58144950      -2.34597004       0.00000000
Si      -1.41712250       2.58595607       0.83319464       0.00000000
Si       2.53791035       1.50817708       1.15978474       0.00000000
Si      -1.38758873      -2.71643897      -0.94519258       0.00000000
H       -2.87686941      -1.18706860      -0.89437735       0.00000000
Si      -2.63703174       1.80805970      -1.12935401       0.00000000
Si      -1.34679857       1.01556748      -2.98668006       0.00000000
