10
Lattice="16.2900001489832 0.0 0.0 0.0 16.2900001489832 0.0 0.0 0.0 29.20415829535462" Properties=species:S:1:pos:R:3:initial_magmoms:R:1 pbc="T T T"
H       -0.49006511      -1.43777170      -0.01518616       0.00000000
Si       2.04784524       0.07040538       1.14459858       0.00000000
Si      -1.90718761       1.14818437       0.81800847       0.00000000
Si       0.36473473       0.14367780      -2.36115620       0.00000000
H        0.31850208      -2.83600758       0.44168369       0.00000000
Si      -3.12709685       0.37028799      -1.14454017       0.00000000
Si      -1.83686367      -0.42220422      -3.00186623       0.00000000
H        0.43571678      -3.49505211       0.83015740       0.00000000
Si       1.94626080      -1.57043746      -2.77208791       0.00000000
Si      -1.27622703       3.41334147       0.87212378       0.00000000
