10
Lattice="16.2900001489832 0.0 0.0 0.0 16.2900001489832 0.0 0.0 0.0 29.20415829535462" Properties=species:S:1:pos:R:3:initial_magmoms:R:1 pbc="T T T"
Si      -1.43811428       0.98582194       1.57234809       0.00000000
Si       1.13169400      -1.77611501       1.17023983       0.00000000
Si       1.75244075       1.73108945       0.01939156       0.00000000
Si      -1.49824312      -0.20087199      -2.04525482       0.00000000
H        1.13692309      -0.74044567      -2.27999784       0.00000000
Si       1.13969239       2.33813630      -2.23344641       0.00000000
Si      -2.35778693       2.82581004       0.44644397       0.00000000
Si       2.52944118      -0.46284777       2.68042482       0.00000000
Si      -0.15443246       2.34253460       2.97854379       0.00000000
Si       1.63885058      -3.44662194      -0.65589619       0.00000000
