10
Lattice="16.2900001489832 0.0 0.0 0.0 16.2900001489832 0.0 0.0 0.0 29.20415829535462" Properties=species:S:1:pos:R:3:initial_magmoms:R:1 pbc="T T T"
Si       0.68941073       2.24070581      -0.26088075       0.00000000
Si      -0.27541992       0.05804127       2.40662707       0.00000000
Si      -1.79981533      -0.01031972      -1.62716809       0.00000000
Si       1.87441050      -1.50338782      -0.41788230       0.00000000
H       -2.96655401       0.17372308       0.72668707       0.00000000
Si       0.82050124      -3.53351280       0.19704046       0.00000000
Si       3.57518425      -0.59556241       0.97909861       0.00000000
Si       2.86603168       2.29154690      -1.18738267       0.00000000
Si       1.04665043      -1.51475824       3.43058327       0.00000000
Si      -0.30882582       3.24205212      -2.14609678       0.00000000
