10
Lattice="16.2900001489832 0.0 0.0 0.0 16.2900001489832 0.0 0.0 0.0 29.20415829535462" Properties=species:S:1:pos:R:3:initial_magmoms:R:1 pbc="T T T"
Si       1.21958181       1.52221906       1.28422366       0.00000000
Si       1.45244574      -1.26089488      -1.38427710       0.00000000
Si      -1.25793010       1.55742175      -1.29514601       0.00000000
Si      -1.36578619      -1.41900562       1.44852625       0.00000000
H       -0.65282176       0.83631232       3.22887015       0.00000000
Si      -2.55252899       0.17739810      -2.71674603       0.00000000
Si       0.07118730      -2.56655468      -2.75199545       0.00000000
Si      -0.36929430       2.32412690       3.01769488       0.00000000
Si      -3.64120599      -0.90360631       0.91531673       0.00000000
Si       3.13401684      -2.33564393      -0.09266479       0.00000000
