10
Lattice="16.2900001489832 0.0 0.0 0.0 16.2900001489832 0.0 0.0 0.0 29.20415829535462" Properties=species:S:1:pos:R:3:initial_magmoms:R:1 pbc="T T T"
Si       1.45538282      -1.39626478      -1.20020329       0.00000000
Si      -1.32968755      -1.41493312       1.34796465       0.00000000
Si       1.40388036       1.31603653       1.37754847       0.00000000
Si      -1.38807091       1.35552349      -1.44301543       0.00000000
Si      -2.66440871       2.68394938       0.01015721       0.00000000
Si       0.17170100      -2.75297745      -2.60639899       0.00000000
Si       0.04512330       2.65766465       2.75545906       0.00000000
Si       2.72981306       2.69796693      -0.05742122       0.00000000
Si      -2.67732668      -0.06576273       2.75683166       0.00000000
Si       2.76812715      -0.17306496      -2.67546303       0.00000000
