10
Lattice="16.2900001489832 0.0 0.0 0.0 16.2900001489832 0.0 0.0 0.0 29.20415829535462" Properties=species:S:1:pos:R:3:initial_magmoms:R:1 pbc="T T T"
Si       0.08262288      -0.14551857       2.29264324       0.00000000
Si      -2.09310701      -0.29444175      -1.00701779       0.00000000
Si       0.67262551      -2.07410798      -0.92340628       0.00000000
Si       1.05390925       2.03012498      -0.61492276       0.00000000
Si      -0.50423089      -1.09634959      -2.74048901       0.00000000
H       -2.37663446      -1.78225634      -0.79584252       0.00000000
Si       2.39467400      -0.90420904       2.22027534       0.00000000
Si      -0.82050124       3.53351280      -0.19704046       0.00000000
Si       0.22614918       2.01875456       3.23354281       0.00000000
Si      -0.19559403      -3.91069147       0.38315856       0.00000000
