10
Lattice="16.28999089631971 0.0 0.0 0.0 16.28999089631971 0.0 0.0 0.0 34.397273925272025" Properties=species:S:1:pos:R:3:initial_magmoms:R:1 pbc="T T T"
Si       1.19153205       1.57434542       1.23111352       0.00000000
Si      -1.57795691      -1.19898377       1.36890908       0.00000000
Si      -1.39239427       1.31339265      -1.47746693       0.00000000
Si       1.32172173      -1.40638805      -1.46721654       0.00000000
Si       2.70580158       2.74134636      -0.07825384       0.00000000
Si       2.73320136      -2.75111126       0.05778745       0.00000000
Si      -2.68369051      -2.80024190       0.03814660       0.00000000
Si      -2.77090361       2.75731056      -0.11302951       0.00000000
Si      -0.10997379       2.96582256       2.54883942       0.00000000
Si      -0.03684798       2.67214644      -2.86171720       0.00000000
