10
Lattice="16.28999089631971 0.0 0.0 0.0 16.28999089631971 0.0 0.0 0.0 34.397273925272025" Properties=species:S:1:pos:R:3:initial_magmoms:R:1 pbc="T T T"
Si       1.78375500       1.23784452      -0.82763327       0.00000000
Si       0.84551616      -1.25379243       1.79264933       0.00000000
Si      -0.65409237      -1.30018635      -1.85900171       0.00000000
Si      -1.63457118       1.68549372       0.31600793       0.00000000
Si       1.78116489       2.83788090       0.87269372       0.00000000
Si      -2.74880066      -0.41977701      -2.33860317       0.00000000
Si       2.18325096      -2.86317927       0.64519003       0.00000000
Si      -2.54956419       1.85168430      -1.91469093       0.00000000
Si       1.23672051       1.39536882      -3.18783794       0.00000000
Si      -1.22867325      -3.36587238      -0.95197949       0.00000000
