10
Lattice="16.28999089631971 0.0 0.0 0.0 16.28999089631971 0.0 0.0 0.0 34.397273925272025" Properties=species:S:1:pos:R:3:initial_magmoms:R:1 pbc="T T T"
Si       1.30150584      -1.39147714      -1.31772590       0.00000000
Si       0.92879064       2.01676716       0.92535598       0.00000000
Si      -1.75093065       1.31735601      -1.07120050       0.00000000
Si      -0.38139777      -1.35195597       2.00199126       0.00000000
Si      -0.09741420       2.26652544      -2.64002665       0.00000000
Si       1.04611122       1.54476441       3.16905702       0.00000000
Si      -3.64833188       0.35142417       0.52693213       0.00000000
Si      -2.74198886      -0.84159027       2.34469149       0.00000000
Si      -2.66092982      -0.20851200      -2.66186893       0.00000000
Si       3.15830520      -2.10676289      -0.16304317       0.00000000
