10
Lattice="16.28999089631971 0.0 0.0 0.0 16.28999089631971 0.0 0.0 0.0 34.397273925272025" Properties=species:S:1:pos:R:3:initial_magmoms:R:1 pbc="T T T"
Si      -1.51426953      -1.16700094       1.30936736       0.00000000
Si      -1.39294161       1.28809917      -1.41747805       0.00000000
Si       1.32864498      -1.41447699      -1.41445109       0.00000000
Si       1.69894926       1.14554538       1.27995768       0.00000000
Si       0.34252983      -1.88228669       2.46405009       0.00000000
Si       0.44533602       2.55528198       2.68900839       0.00000000
Si       2.94818049      -2.43123037       0.01293338       0.00000000
Si      -2.91318957       2.49100164      -0.01293338       0.00000000
Si      -0.02950119       2.64736935      -2.78583677       0.00000000
Si      -2.70580158      -2.74134636       0.07825384       0.00000000
