10
Lattice="16.28999089631971 0.0 0.0 0.0 16.28999089631971 0.0 0.0 0.0 34.397273925272025" Properties=species:S:1:pos:R:3:initial_magmoms:R:1 pbc="T T T"
Si      -2.19354624      -0.81669915       0.12290153       0.00000000
Si      -0.23307732       2.27059794      -0.57594828       0.00000000
Si       1.21464756      -1.16787245      -1.67274037       0.00000000
Si       0.54911961       0.68481531       2.26089968       0.00000000
Si       2.83999860       0.52753536      -1.82694343       0.00000000
Si      -1.61800425       1.43695719       2.82209152       0.00000000
Si       1.91754477       2.69237862      -1.40320318       0.00000000
Si      -3.36955392       0.44527086      -1.43828842       0.00000000
Si      -2.87340939      -0.45250362       2.31576336       0.00000000
Si      -1.40960628       3.19389885       1.28683713       0.00000000
