10
Lattice="16.28999089631971 0.0 0.0 0.0 16.28999089631971 0.0 0.0 0.0 34.397273925272025" Properties=species:S:1:pos:R:3:initial_magmoms:R:1 pbc="T T T"
Si      -1.34886087       1.34786718       1.35821152       0.00000000
Si       1.35801585       1.35568638      -1.35480619       0.00000000
Si      -1.35609363      -1.35830907      -1.35490938       0.00000000
Si       1.35769005      -1.35721764       1.35917464       0.00000000
Si      -2.70367574      -0.00814500       2.71294891       0.00000000
Si       0.00055386       2.71415835      -2.71164181       0.00000000
Si      -2.71421211      -0.00074934      -2.71188259       0.00000000
Si      -2.71290402      -2.71386513       0.00357732       0.00000000
Si       2.71570590      -0.00083079      -2.71122904       0.00000000
Si       0.00017919      -2.71549413      -2.71146982       0.00000000
