10
Lattice="16.28999089631971 0.0 0.0 0.0 16.28999089631971 0.0 0.0 0.0 34.397273925272025" Properties=species:S:1:pos:R:3:initial_magmoms:R:1 pbc="T T T"
Si       1.80983529       1.24703208       0.85150499       0.00000000
Si       0.58424085      -2.28700197      -0.07391978       0.00000000
Si       0.15504822       1.00445769      -2.14030277       0.00000000
Si      -2.08272537      -0.21395286       1.11829040       0.00000000
Si      -3.32830764       1.20658401      -0.34682791       0.00000000
Si      -0.90342711      -0.48586554      -3.51550655       0.00000000
Si       2.49639363       0.52499412      -2.70159780       0.00000000
Si       3.03212286      -0.09788661       2.36254368       0.00000000
Si       0.52531992      -3.19077117       2.10095227       0.00000000
Si      -1.99526436       0.69116841       3.26536944       0.00000000
