10
Lattice="16.28999089631971 0.0 0.0 0.0 16.28999089631971 0.0 0.0 0.0 34.397273925272025" Properties=species:S:1:pos:R:3:initial_magmoms:R:1 pbc="T T T"
Si       1.35755973      -1.35573525       1.35339590       0.00000000
Si       1.35594702       1.35975888      -1.35834911       0.00000000
Si      -1.35904212      -1.35650088      -1.35924344       0.00000000
Si      -1.36280511       1.36607940       1.36048174       0.00000000
Si       2.71233387      -2.71148679      -0.00144469       0.00000000
Si       2.72362284      -0.01060479       2.70342086       0.00000000
Si      -0.00135207      -2.71301805      -2.71566629       0.00000000
Si       2.71326240       0.00190593      -2.71594147       0.00000000
Si      -2.71705797      -2.71218726      -0.00443725       0.00000000
Si       2.71588509       2.71643895      -0.00141029       0.00000000
