10
Lattice="16.28999089631971 0.0 0.0 0.0 16.28999089631971 0.0 0.0 0.0 34.397273925272025" Properties=species:S:1:pos:R:3:initial_magmoms:R:1 pbc="T T T"
Si      -1.33335279      -1.36796904      -1.38222083       0.00000000
Si       1.32406749      -1.43161407       1.33172560       0.00000000
Si       1.36976094       1.36243044      -1.37551336       0.00000000
Si      -1.91904345       0.81528192       1.26960409       0.00000000
Si      -2.70132672       2.70278793      -0.00522839       0.00000000
Si      -2.68816765      -2.72398122      -0.02748344       0.00000000
Si      -2.69800519      -0.00187335      -2.73485998       0.00000000
Si       2.72593602       2.71083519       0.00780819       0.00000000
Si       0.01541034       2.71360449      -2.73664864       0.00000000
Si       0.01550808      -2.71583622      -2.74043235       0.00000000
