10
Lattice="16.28999089631971 0.0 0.0 0.0 16.28999089631971 0.0 0.0 0.0 34.397273925272025" Properties=species:S:1:pos:R:3:initial_magmoms:R:1 pbc="T T T"
Si       1.41292944      -1.22740263      -1.36674205       0.00000000
Si       1.84797018       0.97477731       1.12334680       0.00000000
Si      -1.31732343       1.49768631      -1.32635962       0.00000000
Si      -0.77377500      -1.99676304       1.11935671       0.00000000
Si       0.56254257       1.50208461       3.04732499       0.00000000
Si       0.04686633      -2.57253309      -2.71676701       0.00000000
Si       2.80139130      -2.50872516       0.05751227       0.00000000
Si      -2.71919196      -2.64476295      -0.00244221       0.00000000
Si      -2.67349851       0.14928156      -2.70968117       0.00000000
Si       2.75968890       0.14128317      -2.70971556       0.00000000
