10
Lattice="16.28999089631971 0.0 0.0 0.0 16.28999089631971 0.0 0.0 0.0 34.397273925272025" Properties=species:S:1:pos:R:3:initial_magmoms:R:1 pbc="T T T"
Si      -0.96876630      -0.27132624      -2.13909887       0.00000000
Si       0.36808884       2.33061030       0.43935663       0.00000000
Si       2.24028225      -0.95301387       0.17157370       0.00000000
Si      -1.40677182      -0.86705154       1.82594591       0.00000000
Si       0.51657219      -1.61371998       2.95919913       0.00000000
Si       1.64167362      -2.92962618       1.27517645       0.00000000
Si      -1.80626778       3.23397225       0.35312261       0.00000000
Si       1.89037305       2.21509791       2.32553220       0.00000000
Si       0.83054565       0.39517911      -3.66860890       0.00000000
Si       3.42814905       0.60240420       1.58550883       0.00000000
