10
Lattice="16.28999089631971 0.0 0.0 0.0 16.28999089631971 0.0 0.0 0.0 34.397273925272025" Properties=species:S:1:pos:R:3:initial_magmoms:R:1 pbc="T T T"
Si      -1.35702216       1.35614221       1.35779875       0.00000000
Si       1.35845568      -1.35790182       1.35814272       0.00000000
Si       1.36599795       1.35444834      -1.36059181       0.00000000
Si      -1.36725228      -1.35920502      -1.36661822       0.00000000
Si       2.71125873      -2.71625976      -0.00264859       0.00000000
Si       2.71303434       2.71477152      -0.00048156       0.00000000
Si       0.00045612       2.71350416       2.71556310       0.00000000
Si      -2.71073745      -2.71845891      -0.00010319       0.00000000
Si       2.71464705      -0.00138465       2.71532232       0.00000000
Si      -2.71474479      -0.00187335       2.71532232       0.00000000
