10
Lattice="16.28999089631971 0.0 0.0 0.0 16.28999089631971 0.0 0.0 0.0 34.397273925272025" Properties=species:S:1:pos:R:3:initial_magmoms:R:1 pbc="T T T"
Si      -1.35681039       1.35710061       1.35752357       0.00000000
Si       1.35697329      -1.35687555       1.35834911       0.00000000
Si       1.35772263       1.35801556      -1.35752357       0.00000000
Si      -1.35910728      -1.35728280      -1.35724839       0.00000000
Si       2.71391400       0.00100998       2.71487516       0.00000000
Si       2.71498914      -2.71485882       0.00003440       0.00000000
Si      -0.00081450      -2.71441899       2.71545991       0.00000000
Si      -2.71522372      -2.71484253       0.00000000       0.00000000
Si       2.71474479       0.00187335      -2.71532232       0.00000000
Si      -0.00021177       2.71621482       2.71411842       0.00000000
