10
Lattice="16.28999089631971 0.0 0.0 0.0 16.28999089631971 0.0 0.0 0.0 34.397273925272025" Properties=species:S:1:pos:R:3:initial_magmoms:R:1 pbc="T T T"
Si       1.35694071       1.35788553       1.35652605       0.00000000
Si      -1.35697329       1.35687555      -1.35834911       0.00000000
Si      -1.35778779      -1.35754344       1.35711080       0.00000000
Si       1.35801585      -1.35798327      -1.35831471       0.00000000
Si      -0.00343719      -2.70871749       2.71824609       0.00000000
Si       0.00342090       2.71077645       2.71669821       0.00000000
Si      -2.71378368       2.71397616      -0.00082554       0.00000000
Si       0.00122175      -2.71487511      -2.71487516       0.00000000
Si      -2.71129131      -0.00320913       2.71848687       0.00000000
Si      -2.71484253      -2.71518462      -0.00113511       0.00000000
