10
Lattice="16.28999089631971 0.0 0.0 0.0 16.28999089631971 0.0 0.0 0.0 34.397273925272025" Properties=species:S:1:pos:R:3:initial_magmoms:R:1 pbc="T T T"
Si       0.72150039       2.22479046       0.72048570       0.00000000
Si       1.67581746      -1.05849162       1.50250816       0.00000000
Si      -2.25873882      -0.50209038       0.95682950       0.00000000
Si       0.56294982       1.03151538      -2.28315473       0.00000000
Si       1.08134649       0.42784056       3.42504167       0.00000000
Si       1.86810462       2.82967074      -1.37069773       0.00000000
Si       3.15628524       1.91513385       0.42116046       0.00000000
Si      -3.18958200       1.69227036       1.11161732       0.00000000
Si       3.73865274      -0.33036120       0.55771771       0.00000000
Si       0.13877451       2.63287125       2.88428183       0.00000000
