10
Lattice="16.28999089631971 0.0 0.0 0.0 16.28999089631971 0.0 0.0 0.0 34.397273925272025" Properties=species:S:1:pos:R:3:initial_magmoms:R:1 pbc="T T T"
Si       1.34459289       1.36331010       1.36836904       0.00000000
Si      -1.37375199      -1.34823859       1.37032968       0.00000000
Si      -1.34788347       1.37285604      -1.38090685       0.00000000
Si       1.37352393      -1.36635144      -1.45001789       0.00000000
Si      -0.11606625      -2.61895242      -2.76778305       0.00000000
Si       2.69969283      -2.70262746       0.00131054       0.00000000
Si      -2.72078838      -2.70856178       0.01021944       0.00000000
Si       2.70052362       0.00684180       2.72909156       0.00000000
Si       2.69838963       2.73176784      -0.01889443       0.00000000
Si      -0.01348812      -2.70537809       2.72940113       0.00000000
