10
Lattice="16.28999089631971 0.0 0.0 0.0 16.28999089631971 0.0 0.0 0.0 34.397273925272025" Properties=species:S:1:pos:R:3:initial_magmoms:R:1 pbc="T T T"
Si       1.80333558       0.44966916      -1.58664394       0.00000000
Si      -1.83169647       1.66306239      -0.37045885       0.00000000
Si       0.00182448      -0.45167283       2.51564603       0.00000000
Si      -0.58246524      -1.91371336      -1.63748314       0.00000000
Si      -3.18811590      -1.36476968       0.81363357       0.00000000
Si       0.52949016       1.80486684      -3.07133431       0.00000000
Si      -2.40059214      -0.09912465       2.85143241       0.00000000
Si      -0.72624078       3.22970427      -1.72082778       0.00000000
Si       0.49801788      -2.78248580       2.55028411       0.00000000
Si      -2.20200075      -0.89695998      -3.06486761       0.00000000
