10
Lattice="16.28999089631971 0.0 0.0 0.0 16.28999089631971 0.0 0.0 0.0 34.397273925272025" Properties=species:S:1:pos:R:3:initial_magmoms:R:1 pbc="T T T"
Si      -1.22655555       0.58103172      -1.91623880       0.00000000
Si       0.51207615       2.19467025       0.72712438       0.00000000
Si       2.07490617      -0.79423524      -0.94021561       0.00000000
Si      -0.64804878      -1.35872772       1.94877864       0.00000000
Si       0.80998767      -0.09133803       3.37451205       0.00000000
Si      -2.85190659      -1.11437609      -1.76203574       0.00000000
Si       3.56809644       0.23956074       0.54485312       0.00000000
Si       0.10098171       2.14081551       3.02782173       0.00000000
Si       2.77320960       2.47878414       0.30087312       0.00000000
Si      -0.79384428      -3.60842138       0.84789328       0.00000000
