10
Lattice="16.28999089631971 0.0 0.0 0.0 16.28999089631971 0.0 0.0 0.0 34.397273925272025" Properties=species:S:1:pos:R:3:initial_magmoms:R:1 pbc="T T T"
Si       1.90907397       0.20614995      -1.32171599       0.00000000
Si      -0.47113938      -2.31460442       0.07787547       0.00000000
Si      -1.72199961       0.92395251      -1.35164163       0.00000000
Si       1.04383062       0.18423990       2.13414566       0.00000000
Si      -2.99421603      -1.54731135       1.18952719       0.00000000
Si      -3.55206708       0.65800197       0.16008500       0.00000000
Si       2.85423606       2.23171371      -0.58124546       0.00000000
Si      -0.74523492       0.98091864       3.54443468       0.00000000
Si       1.51576821      -3.27481847      -1.04488657       0.00000000
Si       2.73256605       1.89749178       1.89233269       0.00000000
