10
Lattice="16.28999089631971 0.0 0.0 0.0 16.28999089631971 0.0 0.0 0.0 34.397273925272025" Properties=species:S:1:pos:R:3:initial_magmoms:R:1 pbc="T T T"
Si      -1.35492075       1.35568638       1.35989698       0.00000000
Si       1.37552760       1.33825608      -1.35911273       0.00000000
Si       1.36089918      -1.35951453       1.35903705       0.00000000
Si      -1.35127179      -1.36435266      -1.36997539       0.00000000
Si      -2.71373481       2.71248048       0.00168547       0.00000000
Si      -2.70964602      -2.71793763      -0.00130710       0.00000000
Si      -2.71174743      -0.00224802       2.71687020       0.00000000
Si       0.00286704       2.71267596       2.71659502       0.00000000
Si       2.72072322       2.71142163       0.00161667       0.00000000
Si       2.71783989      -0.00205254       2.71631984       0.00000000
