10
Lattice="16.28999089631971 0.0 0.0 0.0 16.28999089631971 0.0 0.0 0.0 34.397273925272025" Properties=species:S:1:pos:R:3:initial_magmoms:R:1 pbc="T T T"
Si      -1.35477414       1.35575154       1.35484058       0.00000000
Si       1.35865116       1.35568638      -1.35714520       0.00000000
Si      -1.35674523      -1.35931905      -1.35731719       0.00000000
Si       1.35977517      -1.36427121       1.36099770       0.00000000
Si       0.01128897       2.70088200       2.70486554       0.00000000
Si      -2.71233387       2.71148679       0.00144469       0.00000000
Si      -2.71072116      -0.00949707       2.71566629       0.00000000
Si       0.00092853       2.71339272      -2.71449679       0.00000000
Si      -2.71368594      -0.00153126      -2.71422161       0.00000000
Si      -2.71414206      -2.71627605      -0.00048156       0.00000000
