10
Lattice="16.28999089631971 0.0 0.0 0.0 16.28999089631971 0.0 0.0 0.0 34.397273925272025" Properties=species:S:1:pos:R:3:initial_magmoms:R:1 pbc="T T T"
Si       1.65837087       1.03596255      -1.30654678       0.00000000
Si      -0.97917561      -1.67669712      -1.36405906       0.00000000
Si      -1.91679543       1.54792467      -0.24470234       0.00000000
Si       0.79547328      -0.82932390       2.22722473       0.00000000
Si       0.29810700       1.48468689       2.48716508       0.00000000
Si      -3.10171374       0.47382723       1.67325633       0.00000000
Si       2.91685482      -1.54562778       1.36990660       0.00000000
Si       0.26990901       2.31728508      -2.73080110       0.00000000
Si      -2.45210112      -0.39309399      -2.72000035       0.00000000
Si       2.54156580       2.82124881      -0.03243665       0.00000000
