10
Lattice="16.28999089631971 0.0 0.0 0.0 16.28999089631971 0.0 0.0 0.0 34.397273925272025" Properties=species:S:1:pos:R:3:initial_magmoms:R:1 pbc="T T T"
Si       2.26113345       0.28411389      -0.42625126       0.00000000
Si      -0.41109444      -0.05385474       2.30069735       0.00000000
Si      -0.51207615      -2.19467025      -0.72712438       0.00000000
Si      -1.26385965       1.84265964      -0.82704852       0.00000000
Si       2.55414168       1.53697779       1.55028600       0.00000000
Si      -2.69343747       0.39750858       2.20070442       0.00000000
Si      -2.66108553       0.55120473      -2.21962293       0.00000000
Si       0.29791152      -2.28600828       2.64738767       0.00000000
Si      -1.73863170      -1.61363853      -2.64336318       0.00000000
Si       3.05602029      -1.95510951      -0.18227126       0.00000000
