10
Lattice="16.28999089631971 0.0 0.0 0.0 16.28999089631971 0.0 0.0 0.0 34.397273925272025" Properties=species:S:1:pos:R:3:initial_magmoms:R:1 pbc="T T T"
Si      -1.36304946       1.39417965      -1.29031126       0.00000000
Si       0.86068215      -1.71074322      -1.43570862       0.00000000
Si      -1.24877511      -1.22241789       1.65180415       0.00000000
Si       1.37771046       1.45787355       1.52756457       0.00000000
Si       0.73088343       2.00179665      -2.48750905       0.00000000
Si       2.64762999      -2.57025249      -0.06545805       0.00000000
Si      -2.61711882      -2.62731636       0.21639337       0.00000000
Si      -0.82805328      -3.42399510      -1.19389565       0.00000000
Si      -2.44920150       2.85863436       0.28439682       0.00000000
Si       0.09910836      -2.59527393       3.03271100       0.00000000
