10
Lattice="16.28999089631971 0.0 0.0 0.0 16.28999089631971 0.0 0.0 0.0 34.397273925272025" Properties=species:S:1:pos:R:3:initial_magmoms:R:1 pbc="T T T"
Si       1.37049399       1.21691187       1.38971215       0.00000000
Si      -1.30279275       1.43550738      -1.39817268       0.00000000
Si       1.67495409      -0.87320916      -1.48533542       0.00000000
Si      -1.31232240      -1.54520424       1.34098838       0.00000000
Si      -1.78209342      -0.28786059      -2.90446455       0.00000000
Si       0.22990077      -1.49206626      -3.32600337       0.00000000
Si      -0.09405846       2.48508837       2.69948883       0.00000000
Si       0.38397159       2.30612643      -2.90387979       0.00000000
Si       2.62702314      -0.25091487       2.70080281       0.00000000
Si       2.61788445      -2.81035080      -0.17744714       0.00000000
