10
Lattice="16.28999089631971 0.0 0.0 0.0 16.28999089631971 0.0 0.0 0.0 34.397273925272025" Properties=species:S:1:pos:R:3:initial_magmoms:R:1 pbc="T T T"
Si       1.35492075      -1.35568638      -1.35989698       0.00000000
Si       1.35778779       1.35698958       1.35669804       0.00000000
Si      -1.35682668      -1.35793440       1.35697321       0.00000000
Si      -1.35881406       1.35679410      -1.35821152       0.00000000
Si      -2.71451673      -0.00141723       2.71339607       0.00000000
Si      -2.71362078       2.71500543       0.00000000       0.00000000
Si       0.00047241       2.71484253       2.71429040       0.00000000
Si       2.71551042      -0.00071676       2.71404962       0.00000000
Si       0.00011403      -2.71572219       2.71387763       0.00000000
Si       2.71577106       2.71412577      -0.00103192       0.00000000
