10
Lattice="16.28999089631971 0.0 0.0 0.0 16.28999089631971 0.0 0.0 0.0 34.397273925272025" Properties=species:S:1:pos:R:3:initial_magmoms:R:1 pbc="T T T"
Si      -1.35729909       1.35705474      -1.35772996       0.00000000
Si       1.35731538      -1.35785295      -1.35759237       0.00000000
Si       1.35993807       1.35668007       1.35693882       0.00000000
Si      -1.35594702      -1.35975888       1.35834911       0.00000000
Si       0.00161271      -2.71549413       2.71174500       0.00000000
Si      -2.71409319       0.00016290      -2.71429040       0.00000000
Si      -0.00047241      -2.71484253      -2.71429040       0.00000000
Si      -2.71531494       2.71503801       0.00058475       0.00000000
Si       2.71531494       2.71513575      -0.00034397       0.00000000
Si       2.71503801      -2.71555929      -0.00024078       0.00000000
