10
Lattice="16.28999089631971 0.0 0.0 0.0 16.28999089631971 0.0 0.0 0.0 34.397273925272025" Properties=species:S:1:pos:R:3:initial_magmoms:R:1 pbc="T T T"
Si       0.87306255       1.24005996       1.78453157       0.00000000
Si       0.49736628      -2.31401079      -0.25994034       0.00000000
Si      -2.34134541       0.47946357       0.56129503       0.00000000
Si      -0.29810700      -1.48468689      -2.48716508       0.00000000
Si       2.80552896      -0.20944053       1.72949590       0.00000000
Si      -2.21490243       0.06323778      -2.73186742       0.00000000
Si       2.24345880       1.33656192      -2.51960172       0.00000000
Si      -3.39982074      -1.01085966      -0.81390875       0.00000000
Si      -0.68655834       0.72203796       3.55310279       0.00000000
Si       0.64669671       3.53113443       0.95517843       0.00000000
