10
Lattice="16.28999089631971 0.0 0.0 0.0 16.28999089631971 0.0 0.0 0.0 34.397273925272025" Properties=species:S:1:pos:R:3:initial_magmoms:R:1 pbc="T T T"
Si       1.31704650       1.39781232       1.39639393       0.00000000
Si      -1.47825234      -1.38836412       1.27981806       0.00000000
Si       1.08615204      -1.46445471      -1.57470808       0.00000000
Si      -1.05565716       1.29194361      -1.77713615       0.00000000
Si      -0.40931883       0.17816373      -3.68092313       0.00000000
Si       2.54904291      -0.03298725       2.75891199       0.00000000
Si       2.44920150      -2.85863436      -0.28439682       0.00000000
Si      -0.18293670       2.69808012       2.73845592       0.00000000
Si      -0.17775648      -2.73559599       2.74804932       0.00000000
Si       2.62936890       2.94301656       0.05540555       0.00000000
