10
Lattice="16.28999089631971 0.0 0.0 0.0 16.28999089631971 0.0 0.0 0.0 34.397273925272025" Properties=species:S:1:pos:R:3:initial_magmoms:R:1 pbc="T T T"
Si      -1.35589815       1.35360535       1.35817712       0.00000000
Si       1.35651717       1.35607581      -1.35601009       0.00000000
Si      -1.35785295      -1.35808101      -1.35607889       0.00000000
Si       1.35588186      -1.35923760       1.35955301       0.00000000
Si       2.71448415      -0.00068418      -2.71315529       0.00000000
Si      -0.00089595       2.71449297      -2.71336168       0.00000000
Si      -2.71450044       2.71426816       0.00264859       0.00000000
Si      -2.71606428      -0.00081450      -2.71349926       0.00000000
Si       2.71520091      -2.71456560      -0.00027518       0.00000000
Si      -2.71322982      -2.71653669       0.00120391       0.00000000
