10
Lattice="16.28999089631971 0.0 0.0 0.0 16.28999089631971 0.0 0.0 0.0 34.397273925272025" Properties=species:S:1:pos:R:3:initial_magmoms:R:1 pbc="T T T"
Si       1.33862272       1.36392912       1.38257856       0.00000000
Si      -1.37157457      -1.35342207       1.38292253       0.00000000
Si      -1.31159479       1.40900355      -1.42077331       0.00000000
Si       1.47510686      -1.43039232      -1.43119913       0.00000000
Si       2.70616170       2.71349046       0.00402792       0.00000000
Si      -2.73234343      -2.70120780      -0.00403136       0.00000000
Si      -2.72265088       2.71303434       0.02275725       0.00000000
Si       2.71973127      -2.72132595       0.04133523       0.00000000
Si       2.70257790       0.00591327       2.74343867       0.00000000
Si      -0.01435567      -2.71029762       2.74419541       0.00000000
