10
Lattice="16.28999089631971 0.0 0.0 0.0 16.28999089631971 0.0 0.0 0.0 34.397273925272025" Properties=species:S:1:pos:R:3:initial_magmoms:R:1 pbc="T T T"
Si      -0.58236750       2.24549505      -0.13655725       0.00000000
Si       1.52528157      -0.03095100       1.75907757       0.00000000
Si       1.28542761      -0.52730730      -1.92397819       0.00000000
Si      -2.06283528      -0.72813042       0.94479045       0.00000000
Si      -0.56254257      -1.50208461      -3.04732499       0.00000000
Si      -1.46276055      -3.08262186       1.36519417       0.00000000
Si       3.51143982       0.79778646       0.88218738       0.00000000
Si       0.87858486      -3.56208543       0.80389914       0.00000000
Si       1.10131803       1.99291860       2.99039747       0.00000000
Si      -3.73865274       0.33036120      -0.55771771       0.00000000
