10
Lattice="16.28999089631971 0.0 0.0 0.0 16.28999089631971 0.0 0.0 0.0 34.397273925272025" Properties=species:S:1:pos:R:3:initial_magmoms:R:1 pbc="T T T"
Si      -1.98615825      -0.82873746       0.87689019       0.00000000
Si       1.00380609      -0.03789054       2.17535361       0.00000000
Si      -0.38864682       2.44894086      -0.22234410       0.00000000
Si       0.21269853       1.89486909      -2.44289576       0.00000000
Si      -2.41012179       1.19513214       2.10821010       0.00000000
Si      -0.27253170       1.75661586       2.96934633       0.00000000
Si      -3.51143982      -0.79778646      -0.88218738       0.00000000
Si       3.29274657      -0.14765256       1.73462110       0.00000000
Si       3.43352475       1.48181985       0.05338460       0.00000000
Si      -2.22601221      -1.32509376      -2.80616557       0.00000000
