10
Lattice="16.28999089631971 0.0 0.0 0.0 16.28999089631971 0.0 0.0 0.0 34.397273925272025" Properties=species:S:1:pos:R:3:initial_magmoms:R:1 pbc="T T T"
Si      -1.40792841      -1.30883634      -1.36034415       0.00000000
Si       0.27575712      -1.56141279       1.76661058       0.00000000
Si      -0.49619340       2.33081297      -0.03463807       0.00000000
Si       2.29723209      -0.30760407      -0.56394362       0.00000000
Si       0.69972066      -3.58528239       0.53529068       0.00000000
Si       2.41334721      -0.99992907       2.62774681       0.00000000
Si       3.30168978       0.82593136       1.47182578       0.00000000
Si      -0.49801788       2.78248580      -2.55028411       0.00000000
Si      -0.82556091      -3.55433139      -1.22378690       0.00000000
Si       2.68587891      -2.75654493      -0.34159952       0.00000000
