10
Lattice="16.28999089631971 0.0 0.0 0.0 16.28999089631971 0.0 0.0 0.0 34.397273925272025" Properties=species:S:1:pos:R:3:initial_magmoms:R:1 pbc="T T T"
Si      -1.35306369       1.35500220      -1.36405906       0.00000000
Si       1.36192545      -1.36050659      -1.36271756       0.00000000
Si       1.36137159       1.37569050       1.35738598       0.00000000
Si      -1.36998900      -1.36415392       1.37661407       0.00000000
Si      -2.71046052       2.70629028      -0.00261419       0.00000000
Si       2.71450451       2.71194291      -0.00715464       0.00000000
Si      -2.70935280      -2.72136163      -0.00660428       0.00000000
Si       0.00351864       2.71164969      -2.72086029       0.00000000
Si      -2.71192662      -0.00338832      -2.72068830       0.00000000
Si       2.71646212      -2.72123540      -0.00182306       0.00000000
