10
Lattice="16.28999089631971 0.0 0.0 0.0 16.28999089631971 0.0 0.0 0.0 34.397273925272025" Properties=species:S:1:pos:R:3:initial_magmoms:R:1 pbc="T T T"
Si      -1.33947783       1.29445227      -1.38624531       0.00000000
Si       0.90999917       1.52586801       1.59066842       0.00000000
Si      -1.93336236      -0.59124555       1.27053282       0.00000000
Si       1.37850934      -1.44391791      -1.36443743       0.00000000
Si      -0.98740206       0.55993617       3.18880106       0.00000000
Si       2.56351562       2.47503744       0.02184228       0.00000000
Si      -2.65504194      -2.62089973       0.16576056       0.00000000
Si       2.66092982       0.20851200       2.66186893       0.00000000
Si       0.01365509       2.63070468      -2.75078593       0.00000000
Si      -2.48797170       2.88393273       0.10645962       0.00000000
