10
Lattice="16.28999089631971 0.0 0.0 0.0 16.28999089631971 0.0 0.0 0.0 34.397273925272025" Properties=species:S:1:pos:R:3:initial_magmoms:R:1 pbc="T T T"
Si      -2.17971603       0.71413731      -0.38714153       0.00000000
Si       0.71469754      -1.56791250       1.62227954       0.00000000
Si       0.55125360      -1.26382707      -1.92600764       0.00000000
Si       0.91438769       2.16029835       0.41569129       0.00000000
Si       2.93253299      -0.73601478       1.65048532       0.00000000
Si      -1.76319702       1.65138246      -2.66929874       0.00000000
Si       2.83391333       1.65358161       1.60539047       0.00000000
Si      -0.48081564       2.92335453       2.18192350       0.00000000
Si      -2.61490338       2.19590829       1.40612695       0.00000000
Si      -0.49989123      -3.34669726      -1.51599190       0.00000000
