10
Lattice="16.28999089631971 0.0 0.0 0.0 16.28999089631971 0.0 0.0 0.0 34.397273925272025" Properties=species:S:1:pos:R:3:initial_magmoms:R:1 pbc="T T T"
Si       1.27640199       0.46651139       1.91658278       0.00000000
Si      -2.15643762       0.94089248      -0.04991047       0.00000000
Si       0.91151332       0.36820124      -2.15055316       0.00000000
Si      -0.05165559      -2.33744463       0.39047807       0.00000000
Si      -2.65515597       0.65975966       2.20455692       0.00000000
Si       0.68787783       2.71876679       2.14845493       0.00000000
Si      -0.86939730      -3.03123573      -1.65949741       0.00000000
Si       0.58699386      -1.78734762      -3.10899934       0.00000000
Si       2.28210587      -2.90086686       0.63091515       0.00000000
Si       0.47021085      -0.90214020       3.79553492       0.00000000
