10
Lattice="16.28999089631971 0.0 0.0 0.0 16.28999089631971 0.0 0.0 0.0 34.397273925272025" Properties=species:S:1:pos:R:3:initial_magmoms:R:1 pbc="T T T"
Si       1.87120854       0.76843188      -1.22741723       0.00000000
Si       1.33922324      -1.34565174       1.48401274       0.00000000
Si      -1.35470898       1.37758014       1.45494702       0.00000000
Si      -1.50457698      -1.32916626      -1.62432759       0.00000000
Si       2.63050661      -2.68424665       0.06497649       0.00000000
Si      -2.67957468      -2.72053914       0.02382357       0.00000000
Si      -2.77449651       2.69895978      -0.03130498       0.00000000
Si       3.68415359      -0.79417008      -0.90586854       0.00000000
Si       2.85274131       2.64839562       0.02777925       0.00000000
Si       0.00503361      -2.70120454       2.84802364       0.00000000
