10
Lattice="16.28999089631971 0.0 0.0 0.0 16.28999089631971 0.0 0.0 0.0 34.397273925272025" Properties=species:S:1:pos:R:3:initial_magmoms:R:1 pbc="T T T"
Si      -1.35658233      -1.35664749       1.35680123       0.00000000
Si       1.35726651      -1.35796698      -1.35724839       0.00000000
Si      -1.35785295       1.35757602      -1.35752357       0.00000000
Si       1.35900954       1.35646830       1.35807393       0.00000000
Si       2.71098587       0.00029322       2.71370565       0.00000000
Si       2.71456724      -2.71463076       0.00055036       0.00000000
Si       2.71449703       2.71471221       0.00003440       0.00000000
Si      -2.71479366       0.00011403      -2.71480636       0.00000000
Si       2.71547910      -0.00035838      -2.71422161       0.00000000
Si      -2.71510317       2.71459818       0.00010319       0.00000000
