10
Lattice="16.28999089631971 0.0 0.0 0.0 16.28999089631971 0.0 0.0 0.0 34.397273925272025" Properties=species:S:1:pos:R:3:initial_magmoms:R:1 pbc="T T T"
Si       1.10226285       2.05978905       0.24817647       0.00000000
Si       1.07818623      -1.75058856       1.13999509       0.00000000
Si      -0.29300823      -1.25286390      -1.97653726       0.00000000
Si      -1.87944246       0.56091357       1.47385522       0.00000000
Si      -0.17223417       2.30741334       2.15333935       0.00000000
Si      -2.55414168      -1.53697779      -1.55028600       0.00000000
Si      -2.96523612      -1.59083253       0.75041135       0.00000000
Si       3.59138741       0.07064973      -1.12283084       0.00000000
Si       3.34619406      -1.71421299       0.46580814       0.00000000
Si       0.00316026      -3.77322012       0.52191013       0.00000000
