10
Lattice="16.28999089631971 0.0 0.0 0.0 16.28999089631971 0.0 0.0 0.0 34.397273925272025" Properties=species:S:1:pos:R:3:initial_magmoms:R:1 pbc="T T T"
Si      -1.35474156       1.35470898      -1.35772996       0.00000000
Si       1.35725022       1.35648459       1.35717960       0.00000000
Si      -1.35762489      -1.35876519       1.35697321       0.00000000
Si       1.35848826      -1.35982404      -1.36099770       0.00000000
Si      -2.69993718      -0.01845657      -2.71845935       0.00000000
Si      -2.71461447       2.71309950      -0.00048156       0.00000000
Si       0.00741195       2.70663237      -2.72116298       0.00000000
Si       0.00013032       2.71489140       2.71404962       0.00000000
Si       2.71472509      -0.00162900       2.71453118       0.00000000
Si      -2.71487511      -0.00174303       2.71459998       0.00000000
