10
Lattice="16.28999089631971 0.0 0.0 0.0 16.28999089631971 0.0 0.0 0.0 34.397273925272025" Properties=species:S:1:pos:R:3:initial_magmoms:R:1 pbc="T T T"
Si      -1.35725022      -1.35648459      -1.35717960       0.00000000
Si      -1.35711990       1.35840681       1.35687002       0.00000000
Si       1.35747487      -1.35811359       1.35735158       0.00000000
Si       1.35860830       1.35824391      -1.35666364       0.00000000
Si      -2.71199178      -0.00177561      -2.71490955       0.00000000
Si       0.00096111       2.71101438      -2.71724857       0.00000000
Si      -2.71433754       2.71407690      -0.00013759       0.00000000
Si       0.00120546       2.71598283       2.71312089       0.00000000
Si       2.71531561       2.71440270      -0.00010319       0.00000000
Si       2.71143533       0.00104256      -2.71852127       0.00000000
