10
Lattice="16.28999089631971 0.0 0.0 0.0 16.28999089631971 0.0 0.0 0.0 34.397273925272025" Properties=species:S:1:pos:R:3:initial_magmoms:R:1 pbc="T T T"
Si      -1.35057132       1.35040842      -1.36027535       0.00000000
Si       1.36121099       1.33843527       1.37338072       0.00000000
Si       1.36453252      -1.36622601      -1.35625087       0.00000000
Si      -1.35151614      -1.37217186       1.37585733       0.00000000
Si       2.14349426      -0.54907074       2.64821320       0.00000000
Si       0.35322489      -2.46384621       2.69946517       0.00000000
Si      -2.70989037       2.70573642      -0.00044716       0.00000000
Si       0.00541371       2.70580158      -2.71635424       0.00000000
Si      -2.70889668      -0.00716760      -2.71652623       0.00000000
Si       2.72444453       2.70358614       0.00333654       0.00000000
