10
Lattice="16.28999089631971 0.0 0.0 0.0 16.28999089631971 0.0 0.0 0.0 34.397273925272025" Properties=species:S:1:pos:R:3:initial_magmoms:R:1 pbc="T T T"
Si       0.51996051       2.22734799       0.43068851       0.00000000
Si       0.44945739      -1.36247931       1.85955206       0.00000000
Si       1.46696337      -0.68325147      -1.77300848       0.00000000
Si      -2.33758242       0.30553524      -0.48586177       0.00000000
Si       0.96011631       3.04960203      -1.69458265       0.00000000
Si       0.39081339       0.17490573      -3.71446050       0.00000000
Si      -0.75864159       2.10932694      -3.02066709       0.00000000
Si       1.72151091      -2.99577987      -1.66218040       0.00000000
Si       2.52366309       2.39239827       1.62207315       0.00000000
Si      -0.65280546      -3.42226836       1.61137559       0.00000000
