10
Lattice="16.28999089631971 0.0 0.0 0.0 16.28999089631971 0.0 0.0 0.0 34.397273925272025" Properties=species:S:1:pos:R:3:initial_magmoms:R:1 pbc="T T T"
Si       1.90071720      -1.38937410       0.11619406       0.00000000
Si      -2.08902960      -1.08996390      -0.11750115       0.00000000
Si       0.94864815       1.69192827      -1.43674054       0.00000000
Si      -0.81586836       0.61496379       2.19293063       0.00000000
Si       3.01577814       0.14312394       1.50075390       0.00000000
Si       1.75871727       0.28890315      -3.10786423       0.00000000
Si       0.56185839       2.41176708       2.68481192       0.00000000
Si      -3.19958406       0.18497295      -1.85084955       0.00000000
Si      -1.58998545      -3.21835014      -0.96522244       0.00000000
Si       2.73036431      -1.59583356      -2.14549676       0.00000000
