10
Lattice="16.28999089631971 0.0 0.0 0.0 16.28999089631971 0.0 0.0 0.0 34.397273925272025" Properties=species:S:1:pos:R:3:initial_magmoms:R:1 pbc="T T T"
Si       1.37772675       1.79680329       0.49188129       0.00000000
Si       0.81586836      -0.61496379      -2.19293063       0.00000000
Si      -2.04763671       1.34208423       0.19290002       0.00000000
Si      -0.75665421      -1.83725136       1.61144439       0.00000000
Si      -1.27316124      -1.70492769      -2.31043178       0.00000000
Si      -2.20170753      -2.45610846      -0.22922356       0.00000000
Si       0.64900989       1.36757808       2.94898313       0.00000000
Si      -1.22631120       2.81458620       1.81208380       0.00000000
Si       0.16721685       3.87716661       0.25667260       0.00000000
Si       3.83164650      -0.47183985      -0.69217673       0.00000000
