10
Lattice="16.28999089631971 0.0 0.0 0.0 16.28999089631971 0.0 0.0 0.0 34.397273925272025" Properties=species:S:1:pos:R:3:initial_magmoms:R:1 pbc="T T T"
Si      -2.28894048       0.10976202       0.44073252       0.00000000
Si       0.14077818       1.62947241      -1.68123650       0.00000000
Si       1.87041195       0.09930384       1.43481429       0.00000000
Si       0.06069654      -2.39151861       0.00171986       0.00000000
Si      -0.32620725       3.50421604      -0.21192172       0.00000000
Si       3.33553130      -1.22272740       0.18516063       0.00000000
Si       2.55756977       1.37249766      -2.06290886       0.00000000
Si      -1.06852626      -0.47034117       3.45359142       0.00000000
Si       1.19180476      -1.08312210       3.28968832       0.00000000
Si      -3.29274657       0.14765256      -1.73462110       0.00000000
