10
Lattice="16.28999089631971 0.0 0.0 0.0 16.28999089631971 0.0 0.0 0.0 34.397273925272025" Properties=species:S:1:pos:R:3:initial_magmoms:R:1 pbc="T T T"
Si       0.40619115      -1.05116112      -2.05998509       0.00000000
Si       2.47964751       0.00868257      -0.32704946       0.00000000
Si      -0.08920404      -2.61278568       0.25849566       0.00000000
Si       2.24311671      -2.29874706      -0.60494519       0.00000000
Si       0.05476698       1.70113212       2.84162918       0.00000000
Si      -2.89414493      -0.59580675       2.20218350       0.00000000
Si       1.71914886       0.43478010      -3.36680705       0.00000000
Si       0.02811654      -3.08478843       2.50219669       0.00000000
Si       3.53812284       1.49900580       1.04815432       0.00000000
Si      -2.42464107       2.92775283      -1.29674355       0.00000000
