10
Lattice="16.28999089631971 0.0 0.0 0.0 16.28999089631971 0.0 0.0 0.0 34.397273925272025" Properties=species:S:1:pos:R:3:initial_magmoms:R:1 pbc="T T T"
Si       1.91952563      -0.50671674       1.18969918       0.00000000
Si      -1.39520333       0.76305618       1.76623221       0.00000000
Si       0.50270451       1.45121094      -1.81734659       0.00000000
Si      -0.91438769      -2.16029835      -0.41569129       0.00000000
Si      -3.09410372      -1.44616104      -0.80283282       0.00000000
Si      -3.52929107       0.03560994       0.99043566       0.00000000
Si       2.01814529      -2.89631313       1.23479403       0.00000000
Si       1.98680333       0.73311516       3.12616359       0.00000000
Si      -1.64975087       3.07558458       1.65540413       0.00000000
Si       3.42496598      -1.03777074      -1.51733340       0.00000000
