10
Lattice="16.28999089631971 0.0 0.0 0.0 16.28999089631971 0.0 0.0 0.0 34.397273925272025" Properties=species:S:1:pos:R:3:initial_magmoms:R:1 pbc="T T T"
Si      -0.50270451      -1.45121094       1.81734659       0.00000000
Si      -1.75478391       0.05730822      -1.64831829       0.00000000
Si       0.47074353       2.23506945       0.91476161       0.00000000
Si       2.89414493       0.59580675      -2.20218350       0.00000000
Si      -1.53007965       3.43604970       0.09930499       0.00000000
Si       2.94891191       2.29693887       0.63944568       0.00000000
Si       2.92226147      -2.48898168       0.30001319       0.00000000
Si       1.41682112      -1.95792768       3.00704576       0.00000000
Si      -2.88951273       2.17875492      -1.40966987       0.00000000
Si      -3.18028923      -1.96012683      -1.26764344       0.00000000
