10
Lattice="16.28999089631971 0.0 0.0 0.0 16.28999089631971 0.0 0.0 0.0 34.397273925272025" Properties=species:S:1:pos:R:3:initial_magmoms:R:1 pbc="T T T"
Si       0.11732058      -0.47200275       2.24370103       0.00000000
Si      -0.92879064      -2.01676716      -0.92535598       0.00000000
Si       2.33232075       0.31403862      -0.86344085       0.00000000
Si       0.08920404       2.61278568      -0.25849566       0.00000000
Si       0.49539519       1.56162456      -2.31848075       0.00000000
Si       2.64209139      -0.45857979       1.36983780       0.00000000
Si      -2.67972129      -0.69941115      -1.99655648       0.00000000
Si       2.56885155       2.62146825      -0.58554512       0.00000000
Si      -1.02620484       0.24975828      -3.56538263       0.00000000
Si      -1.31018841      -3.36872313       1.07663528       0.00000000
