10
Lattice="16.28999089631971 0.0 0.0 0.0 16.28999089631971 0.0 0.0 0.0 34.397273925272025" Properties=species:S:1:pos:R:3:initial_magmoms:R:1 pbc="T T T"
Si       0.36317089      -2.27201517      -0.37376099       0.00000000
Si       2.00328067       1.20681207       0.17315597       0.00000000
Si      -0.52747576       0.70420041      -2.18340258       0.00000000
Si       0.28673984      -2.34631386       2.02551900       0.00000000
Si       1.26827261      -0.46635012       3.28071548       0.00000000
Si      -2.93862382       1.11764061       1.85642191       0.00000000
Si       1.16842143       3.49220133       0.35047402       0.00000000
Si       3.12991336       0.36095382       2.03552952       0.00000000
Si      -2.63015638      -0.20843055      -2.68752931       0.00000000
Si       0.88218006      -0.21085776      -3.85683089       0.00000000
