10
Lattice="16.28999089631971 0.0 0.0 0.0 16.28999089631971 0.0 0.0 0.0 34.397273925272025" Properties=species:S:1:pos:R:3:initial_magmoms:R:1 pbc="T T T"
Si       1.35670731       1.35615879       1.35656045       0.00000000
Si      -1.35764719       1.35277047      -1.36058493       0.00000000
Si       1.35282703      -1.35720135      -1.36185763       0.00000000
Si      -1.35860830      -1.35824391       1.35666364       0.00000000
Si       2.71282375       2.71371852      -0.00068795       0.00000000
Si      -0.00141781       2.71313208       2.71370565       0.00000000
Si       2.71406179      -0.00105885       2.71377444       0.00000000
Si      -2.71572820       0.00016290       2.71353366       0.00000000
Si      -2.71486483       2.71494027      -0.00158228       0.00000000
Si      -2.70844657      -0.00809613      -2.72167894       0.00000000
