10
Lattice="16.28999089631971 0.0 0.0 0.0 16.28999089631971 0.0 0.0 0.0 34.397273925272025" Properties=species:S:1:pos:R:3:initial_magmoms:R:1 pbc="T T T"
Si      -0.90067899       0.24607674       2.13218501       0.00000000
Si      -0.78228327       1.88750601      -1.27483248       0.00000000
Si       1.91904345      -0.81528192      -1.26960409       0.00000000
Si      -1.79026937      -1.91477547       0.05125197       0.00000000
Si      -2.14349426       0.54907074      -2.64821320       0.00000000
Si       0.58569066      -2.18325096      -2.65182492       0.00000000
Si      -2.95862957       1.48626702       1.67590492       0.00000000
Si      -3.49501040      -0.82310112      -1.27235587       0.00000000
Si      -2.06774932       3.21269751       0.25137542       0.00000000
Si      -0.76912421      -3.53926314      -1.29708753       0.00000000
