10
Lattice="16.28999089631971 0.0 0.0 0.0 16.28999089631971 0.0 0.0 0.0 34.397273925272025" Properties=species:S:1:pos:R:3:initial_magmoms:R:1 pbc="T T T"
Si       1.24558227      -1.42053687       1.46511830       0.00000000
Si      -2.47816838      -0.06186942       0.27531593       0.00000000
Si       0.79382799       2.22342210       0.91823574       0.00000000
Si      -1.20415680       2.30790204      -0.35669993       0.00000000
Si      -0.05476698      -1.70113212      -2.84162918       0.00000000
Si       3.32830764      -1.20658401       0.34682791       0.00000000
Si      -2.94891191      -2.29693887      -0.63944568       0.00000000
Si       1.33304328      -0.51541560       3.61219734       0.00000000
Si      -2.86905670       0.15807816       2.63359435       0.00000000
Si       3.48335586      -0.20212632      -1.79347486       0.00000000
