10
Lattice="16.28999089631971 0.0 0.0 0.0 16.28999089631971 0.0 0.0 0.0 34.397273925272025" Properties=species:S:1:pos:R:3:initial_magmoms:R:1 pbc="T T T"
Si       0.12707829       1.00892115       2.12207221       0.00000000
Si      -0.37791171      -2.33311896       0.29746779       0.00000000
Si      -1.78215532       0.83999385      -1.37300235       0.00000000
Si       2.41994466       0.16650009      -0.39439936       0.00000000
Si       0.70165917       3.07460718       1.21504998       0.00000000
Si       2.87769366      -1.27410606       1.43381677       0.00000000
Si       2.33248365      -0.73862118      -2.54147840       0.00000000
Si       1.90889478      -0.08563653       3.18443261       0.00000000
Si       1.61337789      -3.21391926       1.13122378       0.00000000
Si      -2.54284733      -2.65901670       1.08826156       0.00000000
