10
Lattice="16.28999089631971 0.0 0.0 0.0 16.28999089631971 0.0 0.0 0.0 34.397273925272025" Properties=species:S:1:pos:R:3:initial_magmoms:R:1 pbc="T T T"
Si      -2.09470829       0.88040934      -0.47960146       0.00000000
Si      -0.57458088      -2.06568603       0.90702222       0.00000000
Si       0.65409237       1.30018635       1.85900171       0.00000000
Si       1.43659881       0.40962834      -1.88211669       0.00000000
Si      -0.70165917      -3.07460718      -1.21504998       0.00000000
Si       1.89081288       2.69555517      -1.32883623       0.00000000
Si       2.43784737       2.53803087       1.03136844       0.00000000
Si      -1.89547182       3.15187065      -0.05568922       0.00000000
Si       3.27534885      -0.96726762      -1.46085304       0.00000000
Si       1.71828549      -2.90810709      -1.60944935       0.00000000
