10
Lattice="16.28999089631971 0.0 0.0 0.0 16.28999089631971 0.0 0.0 0.0 34.397273925272025" Properties=species:S:1:pos:R:3:initial_magmoms:R:1 pbc="T T T"
Si      -0.39034098       2.24060805      -0.45634889       0.00000000
Si      -0.12699684      -1.41965721      -1.88080959       0.00000000
Si      -1.36775727      -0.53631567       1.86161590       0.00000000
Si       1.98751032       2.21056929       1.20655385       0.00000000
Si      -2.20261651       1.74907359       2.03893395       0.00000000
Si       1.23768162       2.85884613      -2.03033463       0.00000000
Si       1.06702758      -3.37866003      -1.13903197       0.00000000
Si      -0.13364316       3.08074851       2.17229225       0.00000000
Si      -2.66429140       2.67706602      -0.06662756       0.00000000
Si      -2.48885788      -1.95398550      -2.16837096       0.00000000
