10
Lattice="16.28999089631971 0.0 0.0 0.0 16.28999089631971 0.0 0.0 0.0 34.397273925272025" Properties=species:S:1:pos:R:3:initial_magmoms:R:1 pbc="T T T"
Si      -1.33879758      -1.34288244      -1.36961422       0.00000000
Si      -1.35411018       1.35972630       1.35594130       0.00000000
Si       1.35852410      -1.35571896       1.35583810       0.00000000
Si       1.36435592       1.36624230      -1.39019756       0.00000000
Si       0.21585227      -2.48393178      -2.76499545       0.00000000
Si      -2.62559355       0.10080252      -2.77076388       0.00000000
Si      -2.71241925       0.00218286       2.71343047       0.00000000
Si       0.00240766      -2.71327869       2.71308650       0.00000000
Si      -2.71194684      -2.71666701      -0.00405888       0.00000000
Si       2.71763138       0.00156384       2.71308650       0.00000000
