10
Lattice="16.28999089631971 0.0 0.0 0.0 16.28999089631971 0.0 0.0 0.0 34.397273925272025" Properties=species:S:1:pos:R:3:initial_magmoms:R:1 pbc="T T T"
Si      -1.35704998      -1.35845568      -1.35800513       0.00000000
Si       1.35948847       1.35651417      -1.35762676       0.00000000
Si      -1.35831915       1.35444834       1.36130727       0.00000000
Si       1.36198084      -1.36067112       1.36168564       0.00000000
Si      -2.71303501      -2.71384884      -0.00192625       0.00000000
Si      -2.71285582       2.71517715       0.00041277       0.00000000
Si      -2.71375177       0.00003258      -2.71480636       0.00000000
Si       0.00033720       2.71510384      -2.71473757       0.00000000
Si       2.71548436      -2.71500543       0.00030958       0.00000000
Si       0.00107514      -2.71542897      -2.71515033       0.00000000
