10
Lattice="16.28999089631971 0.0 0.0 0.0 16.28999089631971 0.0 0.0 0.0 34.397273925272025" Properties=species:S:1:pos:R:3:initial_magmoms:R:1 pbc="T T T"
Si       1.35350352      -1.35433431      -1.36137607       0.00000000
Si      -1.36198084       1.36067112      -1.36168564       0.00000000
Si      -1.36323354      -1.36515087       1.37004419       0.00000000
Si       1.35671265       1.35389448       1.39088895       0.00000000
Si       2.70785412      -2.70550836      -0.00024078       0.00000000
Si      -2.72444453      -2.70358614      -0.00333654       0.00000000
Si       2.71471221       2.71398558      -0.00178866       0.00000000
Si       2.71129131       0.00320913      -2.71848687       0.00000000
Si      -0.00355122      -2.71197549      -2.71962198       0.00000000
Si      -2.72029999       2.71511946      -0.00037837       0.00000000
