10
Lattice="16.28999089631971 0.0 0.0 0.0 16.28999089631971 0.0 0.0 0.0 34.397273925272025" Properties=species:S:1:pos:R:3:initial_magmoms:R:1 pbc="T T T"
Si       0.55862645      -0.89137251       2.08365043       0.00000000
Si      -1.10573360      -1.60125813      -1.33076248       0.00000000
Si       1.57795691       1.19898377      -1.36890908       0.00000000
Si      -1.85816513      -0.63439776       2.46532279       0.00000000
Si      -2.52644609      -0.19824930      -2.82986531       0.00000000
Si       0.18556265       2.51237642      -2.84637601       0.00000000
Si      -1.99661384      -3.32768862       0.09376702       0.00000000
Si       2.76948896       2.77332919      -0.13779556       0.00000000
Si       1.48946963      -3.08573325       1.92886261       0.00000000
Si       2.89967864      -0.20740428      -2.83612561       0.00000000
