10
Lattice="16.28999089631971 0.0 0.0 0.0 16.28999089631971 0.0 0.0 0.0 34.36671206372826" Properties=species:S:1:pos:R:3:initial_magmoms:R:1 pbc="T T T"
Si       0.46848737       2.11132639       0.77108635       0.00000000
Si       0.97440590      -1.71413154       1.18517109       0.00000000
Si      -2.23784268      -0.38885859       0.59530052       0.00000000
Si       0.37719984      -0.25422174      -2.32422204       0.00000000
Si      -0.51629037      -3.45289356       0.54454086       0.00000000
Si      -3.09718905       1.72969682      -0.08395792       0.00000000
Si      -2.56691697      -2.54096307      -0.35136546       0.00000000
Si      -1.77276318      -0.55688994      -3.15318196       0.00000000
Si       2.48145896       2.71186539      -0.26678893       0.00000000
Si       1.74401066      -2.19756987      -2.41677164       0.00000000
