10
Lattice="16.28999089631971 0.0 0.0 0.0 16.28999089631971 0.0 0.0 0.0 34.36671206372826" Properties=species:S:1:pos:R:3:initial_magmoms:R:1 pbc="T T T"
Si      -1.35638685      -1.35695812      -1.35693602       0.00000000
Si       1.35910728       1.35802725      -1.35686728       0.00000000
Si      -1.35544203       1.35861369       1.36116313       0.00000000
Si       1.35912357      -1.35993159       1.35796702       0.00000000
Si       2.70343953       0.00413603       2.70531472       0.00000000
Si       2.71505430      -2.71306270       0.00003437       0.00000000
Si      -2.70521025      -0.00748851       2.72342599       0.00000000
Si      -2.71397427       0.00030951      -2.71490304       0.00000000
Si      -2.71462261      -2.71443106       0.00027493       0.00000000
Si       0.00063531      -2.71412155      -2.71517797       0.00000000
