10
Lattice="16.28999089631971 0.0 0.0 0.0 16.28999089631971 0.0 0.0 0.0 34.36671206372826" Properties=species:S:1:pos:R:3:initial_magmoms:R:1 pbc="T T T"
Si       1.34431596       1.36406762       1.34734770       0.00000000
Si       1.35593073      -1.35313112      -1.35793265       0.00000000
Si      -1.35912357       1.35993159      -1.35796702       0.00000000
Si      -1.35156501      -1.36650521       1.36494347       0.00000000
Si      -2.67906969      -0.01850771       2.72524742       0.00000000
Si      -2.71384884      -2.71227098       0.00161524       0.00000000
Si       2.71435383      -2.71192889       0.00759505       0.00000000
Si      -0.00097740      -2.71173341      -2.71462810       0.00000000
Si       2.71441899       0.00361616      -2.71497177       0.00000000
Si      -2.71551042       0.00297347      -2.71490304       0.00000000
