10
Lattice="16.28999089631971 0.0 0.0 0.0 16.28999089631971 0.0 0.0 0.0 34.36671206372826" Properties=species:S:1:pos:R:3:initial_magmoms:R:1 pbc="T T T"
Si      -1.20243006      -0.36369284      -1.94690969       0.00000000
Si       0.40506714      -1.83668351       1.39089035       0.00000000
Si       2.16109656       0.50981021      -0.74087799       0.00000000
Si      -1.64784753       1.02443086       1.35542388       0.00000000
Si      -3.24418608      -0.67877402       1.17472361       0.00000000
Si       0.88402572      -0.68072882       3.38227059       0.00000000
Si      -1.86779511      -2.52311153       1.77827214       0.00000000
Si      -3.42322947      -0.94338878      -1.17434557       0.00000000
Si       3.39082866       1.21793162       1.11764047       0.00000000
Si      -1.07269650       0.63275410       3.62056951       0.00000000
