10
Lattice="16.28999089631971 0.0 0.0 0.0 16.28999089631971 0.0 0.0 0.0 34.36671206372826" Properties=species:S:1:pos:R:3:initial_magmoms:R:1 pbc="T T T"
Si      -1.35420399       1.33066494       1.43906220       0.00000000
Si       0.73651977       1.71753615      -1.49227018       0.00000000
Si      -1.79997984      -1.10472264      -1.13494412       0.00000000
Si       1.35905841      -1.37624436       1.43308582       0.00000000
Si       2.47963122       2.54798406       0.01647197       0.00000000
Si      -2.80870551       2.43833607      -0.09971507       0.00000000
Si      -1.00913292       3.50129115      -1.28108662       0.00000000
Si      -2.72018565      -2.74463694       0.22339406       0.00000000
Si       2.41232094      -3.04005609       0.11909103       0.00000000
Si       0.00159642       2.69741223       2.80846646       0.00000000
