10
Lattice="16.28999089631971 0.0 0.0 0.0 16.28999089631971 0.0 0.0 0.0 34.36671206372826" Properties=species:S:1:pos:R:3:initial_magmoms:R:1 pbc="T T T"
Si       1.95647787      -0.93314007      -1.02110432       0.00000000
Si       1.61484399       1.01310768       1.46182328       0.00000000
Si      -0.90359001       2.06625618      -0.95384863       0.00000000
Si      -1.42746012      -2.01847761       0.71376264       0.00000000
Si      -2.09787507       0.64446498      -2.45852722       0.00000000
Si       0.60114987      -2.06702181      -2.50640008       0.00000000
Si      -1.22767956      -3.00765528      -1.39398335       0.00000000
Si      -3.04430778      -1.28803401      -1.35817322       0.00000000
Si       0.51311871      -2.89882179       2.06104161       0.00000000
Si       2.66284485      -2.33701227       0.85793108       0.00000000
