10
Lattice="16.28999089631971 0.0 0.0 0.0 16.28999089631971 0.0 0.0 0.0 34.36671206372826" Properties=species:S:1:pos:R:3:initial_magmoms:R:1 pbc="T T T"
Si      -1.37235105       1.28500046       1.37326365       0.00000000
Si       1.64776608       0.60678621      -1.57282580       0.00000000
Si       1.33341795      -1.45821564       1.36936303       0.00000000
Si      -1.91172924      -0.89379972      -1.24401794       0.00000000
Si      -0.40948173      -0.15747543      -2.98952556       0.00000000
Si      -0.71425134       3.50965511      -1.04824648       0.00000000
Si      -0.00544086       2.62615067       2.73828960       0.00000000
Si      -2.67537186       2.71363774      -0.07479232       0.00000000
Si       3.47995125      -1.03092894      -1.17896790       0.00000000
Si       2.70414000      -0.08234595       2.73698366       0.00000000
