10
Lattice="16.28999089631971 0.0 0.0 0.0 16.28999089631971 0.0 0.0 0.0 34.36671206372826" Properties=species:S:1:pos:R:3:initial_magmoms:R:1 pbc="T T T"
Si      -1.35711990      -1.35593073      -1.35793265       0.00000000
Si      -1.35560493       1.35839052       1.35868872       0.00000000
Si       1.36047564      -1.35609363       1.35628305       0.00000000
Si       1.35726651       1.35892809      -1.35755462       0.00000000
Si       0.00395847      -2.70659979       2.71139763       0.00000000
Si       0.00667890       2.70415629       2.72201695       0.00000000
Si       2.71306692      -2.71495656      -0.00099664       0.00000000
Si      -2.71479366      -2.71384884      -0.00137467       0.00000000
Si       0.00021177      -2.71347417      -2.71517797       0.00000000
Si       2.71433754       0.00167787      -2.71538417       0.00000000
