10
Lattice="16.28999089631971 0.0 0.0 0.0 16.28999089631971 0.0 0.0 0.0 34.36671206372826" Properties=species:S:1:pos:R:3:initial_magmoms:R:1 pbc="T T T"
Si      -1.32774903       1.73395714      -0.85446004       0.00000000
Si       0.17904339       0.26461476       2.34906918       0.00000000
Si      -0.72847251      -2.29004820      -0.11502545       0.00000000
Si       2.22079941       0.57969594      -0.77256412       0.00000000
Si      -1.64439405       0.82814029      -3.03750354       0.00000000
Si       1.77538194       1.96781964       2.52976946       0.00000000
Si       0.80539389      -3.25218447       1.51457621       0.00000000
Si       1.55543436      -1.57972275       2.95261772       0.00000000
Si       3.42322947       0.94338878       1.17434557       0.00000000
Si      -0.58556034      -1.27661472      -3.60634168       0.00000000
