10
Lattice="16.28999089631971 0.0 0.0 0.0 16.28999089631971 0.0 0.0 0.0 34.36671206372826" Properties=species:S:1:pos:R:3:initial_magmoms:R:1 pbc="T T T"
Si       1.35580041      -1.35796046      -1.35776082       0.00000000
Si      -1.35904212       1.35540945      -1.35738278       0.00000000
Si      -1.37103156      -1.35542248       1.34748517       0.00000000
Si       1.36563957       1.35438318       1.36009776       0.00000000
Si       0.09769113      -2.54350757       2.69510780       0.00000000
Si       2.71344159       2.70917361       0.00209637       0.00000000
Si      -0.00115659       2.71383255      -2.71507487       0.00000000
Si      -2.71454931       2.71446786       0.00072170       0.00000000
Si       2.71386513      -0.00089595      -2.71517797       0.00000000
Si      -2.71536381      -0.00153126      -2.71469684       0.00000000
