10
Lattice="16.28999089631971 0.0 0.0 0.0 16.28999089631971 0.0 0.0 0.0 34.36671206372826" Properties=species:S:1:pos:R:3:initial_magmoms:R:1 pbc="T T T"
Si       0.25195743       2.10199644       0.99952201       0.00000000
Si      -1.64755431       0.68036814      -1.52309916       0.00000000
Si       2.07024723      -0.16669557      -1.16740349       0.00000000
Si      -1.51418808      -1.08015569       1.71060405       0.00000000
Si       0.71236170       3.15351594      -1.11516606       0.00000000
Si       3.18661722      -1.66892516       0.24620326       0.00000000
Si      -3.05220843       1.91962989      -0.03185796       0.00000000
Si      -0.40601196       2.10940839      -2.93295995       0.00000000
Si       0.11955231      -2.60640719       2.59929335       0.00000000
Si      -2.08261134      -3.07116089       0.40765817       0.00000000
