10
Lattice="16.28999089631971 0.0 0.0 0.0 16.28999089631971 0.0 0.0 0.0 34.36671206372826" Properties=species:S:1:pos:R:3:initial_magmoms:R:1 pbc="T T T"
Si       1.33921719       1.34991972      -1.38057002       0.00000000
Si       1.35288450      -1.35998694       1.35985719       0.00000000
Si      -1.36392912       1.35607734       1.35934169       0.00000000
Si      -1.36436895      -1.35640314      -1.37170340       0.00000000
Si      -0.24379614       2.56782528      -2.78831725       0.00000000
Si       2.58028713      -0.14950962      -2.78627930       0.00000000
Si       2.70954828      -2.71277370       0.00333357       0.00000000
Si       2.71112841      -0.00127062       2.71789294       0.00000000
Si       2.71606428       2.71334385      -0.00051550       0.00000000
Si      -0.00446346       2.71427238       2.71727434       0.00000000
