10
Lattice="16.28999089631971 0.0 0.0 0.0 16.28999089631971 0.0 0.0 0.0 34.36671206372826" Properties=species:S:1:pos:R:3:initial_magmoms:R:1 pbc="T T T"
Si       1.34221455       1.33970589       1.37006411       0.00000000
Si      -1.36044306       1.35378045      -1.35669545       0.00000000
Si       1.35549090      -1.35997065      -1.35563008       0.00000000
Si      -1.36008468      -1.37476197       1.37442868       0.00000000
Si       2.63080242      -0.14543712       2.69500470       0.00000000
Si      -0.00127062       2.71233387      -2.71304723       0.00000000
Si      -2.71303434       2.71264338       0.00058423       0.00000000
Si      -0.05066190       2.52431469       2.88996717       0.00000000
Si       2.71339272      -0.00174303      -2.71397514       0.00000000
Si       2.71559187       2.71451673       0.00745758       0.00000000
