10
Lattice="16.28999089631971 0.0 0.0 0.0 16.28999089631971 0.0 0.0 0.0 34.36671206372826" Properties=species:S:1:pos:R:3:initial_magmoms:R:1 pbc="T T T"
Si       1.33226136      -1.31028615       1.37879326       0.00000000
Si      -1.45653777       1.20862026       1.34995957       0.00000000
Si       1.33747416       1.35640314      -1.34291439       0.00000000
Si      -1.37381715      -1.36787130      -1.34171156       0.00000000
Si      -0.57401073      -2.14035939       2.54739959       0.00000000
Si      -2.30918895      -0.36803997       2.90519163       0.00000000
Si       2.69917155      -0.00715131      -2.70129381       0.00000000
Si       2.69594613       2.70962973       0.05168756       0.00000000
Si      -0.01627371       2.70780525      -2.70318398       0.00000000
Si       2.68964190      -2.72955240       0.01549940       0.00000000
