10
Lattice="16.28999089631971 0.0 0.0 0.0 16.28999089631971 0.0 0.0 0.0 34.36671206372826" Properties=species:S:1:pos:R:3:initial_magmoms:R:1 pbc="T T T"
Si       1.45653777      -1.20862026      -1.34995957       0.00000000
Si       1.01103885       1.69362243       1.29315136       0.00000000
Si      -1.28858787       1.48514301      -1.32494059       0.00000000
Si      -0.85265118      -1.57666023       1.55523206       0.00000000
Si      -2.55935448      -2.58846471       0.11746549       0.00000000
Si       0.88252704      -3.34897965       1.19744002       0.00000000
Si       0.08272062      -2.57649156      -2.69167113       0.00000000
Si       2.78879913      -2.51890641       0.02883369       0.00000000
Si      -2.63080242       0.14543712      -2.69500470       0.00000000
Si      -2.68146432       2.66975181       0.19496247       0.00000000
