10
Lattice="16.28999089631971 0.0 0.0 0.0 16.28999089631971 0.0 0.0 0.0 34.36671206372826" Properties=species:S:1:pos:R:3:initial_magmoms:R:1 pbc="T T T"
Si      -1.14714084       1.47777993      -1.38748804       0.00000000
Si      -0.98863914      -1.24172154       1.75483403       0.00000000
Si       1.13739223       1.74205260       1.13365536       0.00000000
Si       1.97725576      -1.02332151      -0.93206012       0.00000000
Si       0.65164072       1.57955985      -2.92075976       0.00000000
Si       0.93783973      -2.56215147       2.09681737       0.00000000
Si       2.95081132      -1.96161248       1.05894209       0.00000000
Si       2.81156440       0.70359768      -2.41484711       0.00000000
Si       1.07658166       1.36164852       3.57486175       0.00000000
Si      -2.79348969       0.66000564      -2.78827601       0.00000000
