10
Lattice="16.28999089631971 0.0 0.0 0.0 16.28999089631971 0.0 0.0 0.0 34.36671206372826" Properties=species:S:1:pos:R:3:initial_magmoms:R:1 pbc="T T T"
Si       0.06074541      -0.14110398      -2.32807111       0.00000000
Si      -1.75428639      -0.93274911       1.38753070       0.00000000
Si       2.09823345      -1.42760673      -0.02550011       0.00000000
Si       1.13710716       1.93795614       1.28694958       0.00000000
Si      -0.08783568      -2.00134053       2.70951231       0.00000000
Si       0.48115773       2.06153208      -2.96175927       0.00000000
Si       1.32382314      -3.31361569       1.20111524       0.00000000
Si       2.99591019      -0.66398040      -2.20892165       0.00000000
Si       2.60933220       0.72775575       2.72278474       0.00000000
Si      -2.80754892       0.73106262       2.70152548       0.00000000
