10
Lattice="16.28999089631971 0.0 0.0 0.0 16.28999089631971 0.0 0.0 0.0 34.36671206372826" Properties=species:S:1:pos:R:3:initial_magmoms:R:1 pbc="T T T"
Si      -1.33921719      -1.34991972       1.38057002       0.00000000
Si       1.37684709       1.36342413       1.38005452       0.00000000
Si       1.24106994      -1.49942934      -1.40570928       0.00000000
Si      -1.58301333       1.21790556      -1.40774723       0.00000000
Si      -2.70358614      -2.70632286       0.00886662       0.00000000
Si      -2.69506647       2.71919196       0.02707067       0.00000000
Si       2.71329498      -2.70962973       0.03012588       0.00000000
Si       2.72850984       2.70974376       0.00156369       0.00000000
Si      -2.70314631       0.00615762       2.73991171       0.00000000
Si       0.01366731      -2.70990666       2.74042721       0.00000000
