10
Lattice="16.28999089631971 0.0 0.0 0.0 16.28999089631971 0.0 0.0 0.0 34.36671206372826" Properties=species:S:1:pos:R:3:initial_magmoms:R:1 pbc="T T T"
Si       1.37482713      -0.70139853      -1.73342356       0.00000000
Si      -0.07530867      -0.77612076       2.20614349       0.00000000
Si      -1.64664207       1.40444235      -0.92559917       0.00000000
Si       2.22684300       1.03816170       0.49663363       0.00000000
Si      -0.91111599      -2.39999918      -0.24070459       0.00000000
Si       2.91022479      -1.39158465       1.06911464       0.00000000
Si      -2.89315124      -1.91770441       0.94329804       0.00000000
Si       0.62260380       1.04904342       3.41307147       0.00000000
Si      -3.66753779      -0.12974985      -0.57275594       0.00000000
Si       1.54280961       2.68895772       2.05473329       0.00000000
