10
Lattice="16.28999089631971 0.0 0.0 0.0 16.28999089631971 0.0 0.0 0.0 34.36671206372826" Properties=species:S:1:pos:R:3:initial_magmoms:R:1 pbc="T T T"
Si       1.78546545      -0.27557793       1.50894007       0.00000000
Si      -1.69311744       1.49348349       0.72355716       0.00000000
Si       1.24276410       0.84603744      -1.86985948       0.00000000
Si      -1.38914604      -1.96633332       0.16355127       0.00000000
Si       1.57081212      -1.36169739      -2.72510996       0.00000000
Si      -1.56690252      -1.89035676       2.56276152       0.00000000
Si       1.79833455       2.00741670       2.31294975       0.00000000
Si       0.70656246      -1.52559108       3.16462608       0.00000000
Si      -3.36458547       1.16618481      -0.87789815       0.00000000
Si       3.26653596      -1.92997404       0.41710902       0.00000000
