10
Lattice="16.28999089631971 0.0 0.0 0.0 16.28999089631971 0.0 0.0 0.0 34.36671206372826" Properties=species:S:1:pos:R:3:initial_magmoms:R:1 pbc="T T T"
Si      -0.62058384      -2.19092355       0.35755147       0.00000000
Si       2.23966323       0.14325426       0.65241803       0.00000000
Si       0.13361058       0.31516263      -2.34085553       0.00000000
Si      -1.17542124       1.71155839       1.17802281       0.00000000
Si      -1.11360069      -2.05579800       2.65606719       0.00000000
Si       1.80991674       1.92843205      -2.37013599       0.00000000
Si      -2.29205187      -2.51822223      -1.24390384       0.00000000
Si       2.20231026       2.00679346       2.10300339       0.00000000
Si      -3.33935226      -0.42376806      -1.63156057       0.00000000
Si      -1.99599741       0.97146997      -3.03186740       0.00000000
