10
Lattice="16.28999089631971 0.0 0.0 0.0 16.28999089631971 0.0 0.0 0.0 34.36671206372826" Properties=species:S:1:pos:R:3:initial_magmoms:R:1 pbc="T T T"
Si      -1.35752715      -1.35740521      -1.35576755       0.00000000
Si       1.35755990       1.35781060      -1.35621432       0.00000000
Si       1.35471791      -1.35726718       1.35989156       0.00000000
Si      -1.35452979       1.36056361       1.35906675       0.00000000
Si      -0.02950119      -2.68146499       2.72706886       0.00000000
Si      -0.00967626       2.70634567       2.71823661       0.00000000
Si      -2.71231758      -2.71318162       0.00134030       0.00000000
Si      -0.00001629      -2.71497352      -2.71339090       0.00000000
Si      -2.71542897      -0.00082102      -2.71301287       0.00000000
Si       2.71496863      -0.00039585      -2.71380330       0.00000000
