10
Lattice="16.28999089631971 0.0 0.0 0.0 16.28999089631971 0.0 0.0 0.0 34.36671206372826" Properties=species:S:1:pos:R:3:initial_magmoms:R:1 pbc="T T T"
Si      -1.22070744       1.96947729       0.47017125       0.00000000
Si      -0.38110455      -1.67356944       1.71703063       0.00000000
Si       2.08773359       1.23426072       0.22578942       0.00000000
Si      -1.82301390      -1.12163166      -1.58461561       0.00000000
Si      -2.22474159      -0.72558918       2.88498399       0.00000000
Si      -3.43288944       1.41982011      -0.20145778       0.00000000
Si      -2.81922885       0.84813885      -2.36498098       0.00000000
Si      -0.48791808       2.76714972       2.56640439       0.00000000
Si       2.39367608       1.50245928       2.58248802       0.00000000
Si       1.09139483      -2.74175361      -2.52440825       0.00000000
