10
Lattice="16.28999089631971 0.0 0.0 0.0 16.28999089631971 0.0 0.0 0.0 34.36671206372826" Properties=species:S:1:pos:R:3:initial_magmoms:R:1 pbc="T T T"
Si       0.99678510       1.74488706       1.14338115       0.00000000
Si      -1.69042959       0.25971147      -1.61100926       0.00000000
Si      -0.57642165      -1.61239560       1.62650866       0.00000000
Si       1.84363704      -0.94798026      -1.16795336       0.00000000
Si      -0.96881517      -1.69075702      -2.84663072       0.00000000
Si      -0.53906868      -3.47593481       0.17592330       0.00000000
Si       0.75963528      -2.97959480      -1.74610488       0.00000000
Si       0.50788962       1.01426427       3.37962435       0.00000000
Si       3.24199412       1.08714573       1.19702762       0.00000000
Si       3.43956249      -1.14133279       0.52986626       0.00000000
