10
Lattice="16.28999089631971 0.0 0.0 0.0 16.28999089631971 0.0 0.0 0.0 34.36671206372826" Properties=species:S:1:pos:R:3:initial_magmoms:R:1 pbc="T T T"
Si      -1.56146166      -0.20269321      -1.74390541       0.00000000
Si       1.97891639      -0.98571442      -0.94628795       0.00000000
Si      -0.43385157      -1.67398551       1.69458915       0.00000000
Si      -0.47715039       2.42396666       0.00921028       0.00000000
Si       1.16919846       3.24174095       1.40999825       0.00000000
Si       1.31272965      -3.23714133      -1.31892641       0.00000000
Si       1.01292849      -3.46640679       0.97003536       0.00000000
Si       2.45452248       0.26836961      -2.84054781       0.00000000
Si      -0.98504001       1.40970239      -3.37041407       0.00000000
Si      -3.70946106       0.21019313      -0.81036752       0.00000000
