10
Lattice="16.28999089631971 0.0 0.0 0.0 16.28999089631971 0.0 0.0 0.0 34.36671206372826" Properties=species:S:1:pos:R:3:initial_magmoms:R:1 pbc="T T T"
Si      -0.61366059       0.57168126       2.16352320       0.00000000
Si      -1.45205802       0.37629900      -1.77294530       0.00000000
Si       0.99621495      -1.96977051       0.78036537       0.00000000
Si       2.18005812       1.76725323      -1.48148105       0.00000000
Si       0.45421407       1.20637224      -2.94155163       0.00000000
Si       1.59852141       1.12133844       2.83515223       0.00000000
Si       1.82433339      -2.84470315      -1.32339409       0.00000000
Si       2.81922885      -0.84813885       2.36498098       0.00000000
Si      -1.82474064       2.62089810       2.23280653       0.00000000
Si      -2.16756369      -1.53585378      -2.87756078       0.00000000
