10
Lattice="16.28999089631971 0.0 0.0 0.0 16.28999089631971 0.0 0.0 0.0 34.36671206372826" Properties=species:S:1:pos:R:3:initial_magmoms:R:1 pbc="T T T"
Si      -1.33226136       1.31028615      -1.37879326       0.00000000
Si       1.72584405       0.56088099       1.46007058       0.00000000
Si      -1.90627209      -0.83007324       1.16860633       0.00000000
Si       1.35738054      -1.41926625      -1.36329386       0.00000000
Si      -0.45421407      -1.20637224       2.94155163       0.00000000
Si       2.49362433       2.40715701       0.09155297       0.00000000
Si      -2.78879913       2.51890641      -0.02883369       0.00000000
Si      -2.62177776      -2.74222602       0.06399085       0.00000000
Si       0.00521280       2.66668929      -2.72170765       0.00000000
Si      -2.70607851      -0.05758515      -2.72050481       0.00000000
