10
Lattice="16.28999089631971 0.0 0.0 0.0 16.28999089631971 0.0 0.0 0.0 34.36671206372826" Properties=species:S:1:pos:R:3:initial_magmoms:R:1 pbc="T T T"
Si      -1.35555606      -1.35601218       1.35724532       0.00000000
Si      -1.35062019       1.35860229      -1.36116313       0.00000000
Si       1.35767376      -1.35527913      -1.36226286       0.00000000
Si       1.35902583       1.35990549       1.35666108       0.00000000
Si      -0.01417230      -2.71445157      -2.71109177       0.00000000
Si       0.00138465      -2.71305063       2.71397514       0.00000000
Si      -2.71399545       0.00265527       2.71390640       0.00000000
Si      -2.71379997      -2.71472850      -0.00079043       0.00000000
Si       2.71601173      -2.71311579       0.00017183       0.00000000
Si       2.71495865       2.71489140      -0.00054987       0.00000000
