10
Lattice="16.28999089631971 0.0 0.0 0.0 16.28999089631971 0.0 0.0 0.0 34.36671206372826" Properties=species:S:1:pos:R:3:initial_magmoms:R:1 pbc="T T T"
Si      -1.35847197      -1.35322659      -1.39460195       0.00000000
Si       1.36380967       1.35822762      -1.39253995       0.00000000
Si       1.12993956      -1.61275887       1.41865867       0.00000000
Si      -1.25613819       1.48574574       1.52560793       0.00000000
Si       2.69730050      -2.70816363      -0.04113698       0.00000000
Si      -2.69594613      -2.70962973      -0.05168756       0.00000000
Si       2.69875683       2.71560816      -0.01580870       0.00000000
Si      -2.70834282       2.71880100      -0.00811055       0.00000000
Si       0.00122175       2.71358820      -2.75250024       0.00000000
Si      -2.71221984      -0.00182448      -2.75487155       0.00000000
