10
Lattice="16.28999089631971 0.0 0.0 0.0 16.28999089631971 0.0 0.0 0.0 34.36671206372826" Properties=species:S:1:pos:R:3:initial_magmoms:R:1 pbc="T T T"
Si       0.08796600      -0.19311795      -2.34336431       0.00000000
Si      -2.17903185      -0.76680288       0.48274947       0.00000000
Si       0.32907429       2.15210448       0.94666598       0.00000000
Si       2.05062660      -0.91193049       0.89590632       0.00000000
Si       0.79415379       1.98407313      -2.80181650       0.00000000
Si       2.56691697       2.54096307       0.35136546       0.00000000
Si       0.10329489       1.82439855       3.22930427       0.00000000
Si       3.17776265      -1.59842367      -1.07378852       0.00000000
Si      -2.13218181      -0.53818902      -3.03667874       0.00000000
Si      -3.35238426       0.96303222       1.53581485       0.00000000
