10
Lattice="16.28999089631971 0.0 0.0 0.0 16.28999089631971 0.0 0.0 0.0 34.36671206372826" Properties=species:S:1:pos:R:3:initial_magmoms:R:1 pbc="T T T"
Si       1.90365496      -0.99481401       1.06639967       0.00000000
Si       0.44106804       2.24323074      -0.75672106       0.00000000
Si      -1.14543135       1.48677201       1.54337661       0.00000000
Si      -1.65879441      -1.48297644      -1.22080939       0.00000000
Si      -1.98407313       2.43493146      -0.55330437       0.00000000
Si       0.50450130      -2.19916629       2.70251524       0.00000000
Si       3.16045126      -1.80724518      -1.12355155       0.00000000
Si      -2.64300363       0.24478983       2.76159509       0.00000000
Si       2.38839975      -0.49309830      -3.09011901       0.00000000
Si      -0.15288165      -3.05914797      -2.49076322       0.00000000
