10
Lattice="16.28999089631971 0.0 0.0 0.0 16.28999089631971 0.0 0.0 0.0 34.36671206372826" Properties=species:S:1:pos:R:3:initial_magmoms:R:1 pbc="T T T"
Si       0.19978056      -0.98917767      -2.10774600       0.00000000
Si       1.94057883      -0.88034418       1.34727897       0.00000000
Si       1.42746012       2.01847761      -0.71376264       0.00000000
Si      -1.67568714      -1.05366978       1.71414382       0.00000000
Si      -1.61684766       0.73044360      -2.07193586       0.00000000
Si      -1.04273919       0.77445918       3.14400604       0.00000000
Si       1.31864292       0.58637484       3.23872075       0.00000000
Si      -3.20800860       2.00096586       0.41738395       0.00000000
Si       2.02860999      -0.04854420      -3.22016272       0.00000000
Si       3.38393799       1.08533754      -1.73486696       0.00000000
