10
Lattice="16.28999089631971 0.0 0.0 0.0 16.28999089631971 0.0 0.0 0.0 34.36671206372826" Properties=species:S:1:pos:R:3:initial_magmoms:R:1 pbc="T T T"
Si       1.35242838      -1.35806472       1.35576755       0.00000000
Si       1.35479043       1.35577641      -1.35710785       0.00000000
Si      -1.36003581       1.35219110       1.36030396       0.00000000
Si      -1.36003581      -1.35884664      -1.35666108       0.00000000
Si       2.68281639       0.03171663       2.72572856       0.00000000
Si       2.71231758       2.71318162      -0.00134030       0.00000000
Si      -0.00311139       2.71236060      -2.71435317       0.00000000
Si       2.71230129      -0.00179190      -2.71473120       0.00000000
Si       2.71016730      -2.71769328       0.00058423       0.00000000
Si      -0.00270414      -2.71619460      -2.71486867       0.00000000
