10
Lattice="16.28999089631971 0.0 0.0 0.0 16.28999089631971 0.0 0.0 0.0 34.36671206372826" Properties=species:S:1:pos:R:3:initial_magmoms:R:1 pbc="T T T"
Si      -1.35242838       1.35806472      -1.35576755       0.00000000
Si       1.35773892      -1.35962856      -1.35518331       0.00000000
Si       1.33038801       1.38978135       1.36996101       0.00000000
Si      -1.35182565      -1.35441576       1.38920638       0.00000000
Si      -2.71246419       2.71025582       0.00453641       0.00000000
Si      -2.71246419      -0.00078192      -2.71242863       0.00000000
Si      -2.71117728      -2.71427238       0.00804182       0.00000000
Si       0.00236205       2.71384113      -2.71287540       0.00000000
Si       0.00182448      -2.71538010      -2.71311597       0.00000000
Si       2.71460711       2.71397916       0.00278371       0.00000000
