10
Lattice="16.28999089631971 0.0 0.0 0.0 16.28999089631971 0.0 0.0 0.0 34.36671206372826" Properties=species:S:1:pos:R:3:initial_magmoms:R:1 pbc="T T T"
Si       1.71080838      -1.04482431      -1.25332032       0.00000000
Si       0.30594249       0.26819856       2.35669860       0.00000000
Si      -2.08773359      -1.23426072      -0.22578942       0.00000000
Si      -0.11117925       2.37293172      -0.62097247       0.00000000
Si      -3.30844103       0.73521657       0.24438183       0.00000000
Si       2.05964244      -1.37028222       2.48705161       0.00000000
Si       0.58674951      -2.02473297      -3.09383062       0.00000000
Si      -2.57565167       1.53288900       2.34061497       0.00000000
Si       3.82466394       0.18945270      -0.93439706       0.00000000
Si      -2.46883814      -2.90783016       1.49124120       0.00000000
