10
Lattice="16.28999089631971 0.0 0.0 0.0 16.28999089631971 0.0 0.0 0.0 34.36671206372826" Properties=species:S:1:pos:R:3:initial_magmoms:R:1 pbc="T T T"
Si       1.80472023       1.42086267       0.29589756       0.00000000
Si       0.24910668      -1.97599329      -1.23118815       0.00000000
Si      -1.30290678       1.06494246      -1.67163218       0.00000000
Si      -1.31843115      -0.53981802       1.94440092       0.00000000
Si      -0.02143764       2.74271472       1.06402837       0.00000000
Si      -3.08734433      -0.26391429      -0.93350352       0.00000000
Si      -2.03598936      -2.44916892      -0.78813225       0.00000000
Si       2.05527672       2.31122520      -1.97976429       0.00000000
Si      -3.45911960       0.51129423       1.28930229       0.00000000
Si       1.96618671      -3.23696961      -0.32895835       0.00000000
