10
Lattice="16.28999089631971 0.0 0.0 0.0 16.28999089631971 0.0 0.0 0.0 34.36671206372826" Properties=species:S:1:pos:R:3:initial_magmoms:R:1 pbc="T T T"
Si      -1.35617508       1.35529542      -1.35916985       0.00000000
Si       1.35835794       1.35661491       1.35727968       0.00000000
Si      -1.35684786      -1.35822762       1.35721095       0.00000000
Si       1.36259334      -1.35641943      -1.35855125       0.00000000
Si      -2.69318402      -0.00001629      -2.72335038       0.00000000
Si      -0.02531466      -2.72442105      -2.70133849       0.00000000
Si      -2.71598792       2.71184517      -0.00027493       0.00000000
Si      -2.71435242      -0.00084708       2.71414697       0.00000000
Si       0.00102627       2.71415835       2.71452500       0.00000000
Si       2.71547784       2.71321353       0.00182144       0.00000000
