10
Lattice="16.28999089631971 0.0 0.0 0.0 16.28999089631971 0.0 0.0 0.0 34.36671206372826" Properties=species:S:1:pos:R:3:initial_magmoms:R:1 pbc="T T T"
Si      -1.35770493      -1.35708732      -1.35693602       0.00000000
Si       1.35767376       1.35791811      -1.35655798       0.00000000
Si       1.35685926      -1.35589815       1.36026959       0.00000000
Si      -1.35459127       1.35891180       1.36126623       0.00000000
Si      -0.02110044      -2.70747945       2.71266920       0.00000000
Si      -0.00020037      -2.71446786      -2.71387203       0.00000000
Si       2.71479366       2.71384884       0.00137467       0.00000000
Si       2.71500543       0.00037467      -2.71380330       0.00000000
Si       2.71423980      -2.71466334       0.00085917       0.00000000
Si      -2.71527326       0.00061902      -2.71414697       0.00000000
