10
Lattice="16.28999089631971 0.0 0.0 0.0 16.28999089631971 0.0 0.0 0.0 34.36671206372826" Properties=species:S:1:pos:R:3:initial_magmoms:R:1 pbc="T T T"
Si       1.44293562       1.17579591      -1.40422464       0.00000000
Si      -2.00534787      -0.47902374      -1.11344773       0.00000000
Si      -0.59922765       1.27202094       1.88999839       0.00000000
Si       1.18749213      -1.89050337       0.80724015       0.00000000
Si      -1.73239263      -0.66979593       2.88161605       0.00000000
Si      -3.22317850      -0.91466721       0.94566934       0.00000000
Si       1.49143095       2.37311091       2.23445613       0.00000000
Si      -2.30777824       1.61512092      -2.22552078       0.00000000
Si       2.19297609       2.84825763       0.03381686       0.00000000
Si       2.59291188      -2.35217826      -1.05725812       0.00000000
