10
Lattice="16.28999089631971 0.0 0.0 0.0 16.28999089631971 0.0 0.0 0.0 34.36671206372826" Properties=species:S:1:pos:R:3:initial_magmoms:R:1 pbc="T T T"
Si      -1.12713605       0.68649318       1.96969484       0.00000000
Si       0.79027677      -2.22096231       0.34957839       0.00000000
Si      -1.49078587      -0.24487128      -1.93594671       0.00000000
Si       1.13316498       1.94181687      -0.99161766       0.00000000
Si       1.73239263       0.66979593      -2.88161605       0.00000000
Si       0.36356022       2.42525520       2.61032507       0.00000000
Si      -3.08979665       1.40530572      -1.26957579       0.00000000
Si      -3.17776265       1.59842367       1.07378852       0.00000000
Si       2.07174591      -0.54319005       3.08523893       0.00000000
Si       2.91988476      -1.22070744      -2.07437590       0.00000000
