10
Lattice="16.28999089631971 0.0 0.0 0.0 16.28999089631971 0.0 0.0 0.0 34.36671206372826" Properties=species:S:1:pos:R:3:initial_magmoms:R:1 pbc="T T T"
Si       1.35664351      -1.35679410      -1.35786392       0.00000000
Si       1.35698071       1.35733167       1.35731405       0.00000000
Si      -1.35735587       1.35749457      -1.35745152       0.00000000
Si      -1.35948986      -1.35840681       1.35786392       0.00000000
Si      -2.71356353       0.00001629      -2.71462810       0.00000000
Si       2.71396215      -0.00197109      -2.71449064       0.00000000
Si      -2.71540430      -2.71415835      -0.00006873       0.00000000
Si      -2.71486673       2.71506288       0.00017183       0.00000000
Si       2.71521648       2.71480462       0.00010310       0.00000000
Si       2.71536309      -2.71476108       0.00000000       0.00000000
