10
Lattice="16.28999089631971 0.0 0.0 0.0 16.28999089631971 0.0 0.0 0.0 34.36671206372826" Properties=species:S:1:pos:R:3:initial_magmoms:R:1 pbc="T T T"
Si      -1.35698071      -1.35733167      -1.35731405       0.00000000
Si       1.35823576       1.35747295      -1.35721095       0.00000000
Si      -1.35960238       1.35786924       1.35851689       0.00000000
Si       1.35989734      -1.35777150       1.35930732       0.00000000
Si       2.71462261       2.71443106      -0.00027493       0.00000000
Si      -2.71433658       0.00016290      -2.71476557       0.00000000
Si      -0.00033720      -2.71412577      -2.71517797       0.00000000
Si      -2.71432029       2.71513642      -0.00137467       0.00000000
Si       0.00064834       2.71474057      -2.71517797       0.00000000
Si       0.00941236       2.70694255       2.72315105       0.00000000
