10
Lattice="16.28999089631971 0.0 0.0 0.0 16.28999089631971 0.0 0.0 0.0 34.36671206372826" Properties=species:S:1:pos:R:3:initial_magmoms:R:1 pbc="T T T"
Si      -1.07618582       1.49232690      -1.44116888       0.00000000
Si       1.39388643      -1.39356063      -1.35844815       0.00000000
Si       1.15898463       0.78780069       1.96519279       0.00000000
Si      -2.27122445      -0.92046645       0.75603372       0.00000000
Si       0.81911007      -1.19145060       3.26322423       0.00000000
Si      -2.49656372       0.13916547      -2.80769321       0.00000000
Si      -1.69083032       3.40908065      -0.10591827       0.00000000
Si       0.10015092       2.89255570       2.53403093       0.00000000
Si      -1.06665943      -2.72238480       2.55798454       0.00000000
Si       3.50630847       1.14696261       1.44903886       0.00000000
