10
Lattice="16.28999089631971 0.0 0.0 0.0 16.28999089631971 0.0 0.0 0.0 34.385447050020396" Properties=species:S:1:pos:R:3:initial_magmoms:R:1 pbc="T T T"
Si       0.93791304       1.68904494      -1.29887660       0.00000000
Si      -1.80524870      -1.00584234      -1.10528643       0.00000000
Si      -0.81976493       0.97415829       2.06312798       0.00000000
Si       1.64875977      -1.88812503       0.20057042       0.00000000
Si      -1.21231483      -1.16496306       2.96082934       0.00000000
Si       0.84965382      -2.25792432       2.42974582       0.00000000
Si       2.33896707       0.32542533      -2.54799744       0.00000000
Si      -0.42385603      -2.38753245      -2.54906339       0.00000000
Si       1.30862457       1.10708469       3.18179035       0.00000000
Si       3.60070902      -0.91344546      -0.93370295       0.00000000
