10
Lattice="16.28999089631971 0.0 0.0 0.0 16.28999089631971 0.0 0.0 0.0 34.385447050020396" Properties=species:S:1:pos:R:3:initial_magmoms:R:1 pbc="T T T"
Si      -1.35679410      -1.35765747      -1.35688488       0.00000000
Si       1.35791811       1.35782037      -1.35719435       0.00000000
Si      -1.35526284       1.35946566       1.35960134       0.00000000
Si       1.35868374      -1.36073628       1.35977326       0.00000000
Si       0.00778662       2.72016936       2.68894346       0.00000000
Si       0.01716966      -2.70855459       2.71765533       0.00000000
Si      -2.71453628       0.00014661      -2.71297890       0.00000000
Si       0.00065160       2.71378368      -2.71418239       0.00000000
Si       0.00037467      -2.71456560      -2.71435432       0.00000000
Si       2.71507059       0.00037467      -2.71449186       0.00000000
