10
Lattice="16.28999089631971 0.0 0.0 0.0 16.28999089631971 0.0 0.0 0.0 34.385447050020396" Properties=species:S:1:pos:R:3:initial_magmoms:R:1 pbc="T T T"
Si      -1.18376172      -1.41837030       1.35495930       0.00000000
Si      -0.52703037       2.17331406       0.59579697       0.00000000
Si       2.29449537      -0.17712117       0.34908125       0.00000000
Si      -0.73723653       1.02332151      -1.96640166       0.00000000
Si       2.23990758       1.36682874       2.18041680       0.00000000
Si      -1.55447325      -0.83641005      -3.12570765       0.00000000
Si      -3.31215122      -1.55129670       0.23629692       0.00000000
Si       2.67942807      -2.03704821      -1.56866497       0.00000000
Si       1.18240965       1.98744516      -2.96234230       0.00000000
Si       1.46380311       3.34099755       1.01880698       0.00000000
