10
Lattice="16.28999089631971 0.0 0.0 0.0 16.28999089631971 0.0 0.0 0.0 34.385447050020396" Properties=species:S:1:pos:R:3:initial_magmoms:R:1 pbc="T T T"
Si      -2.29449537       0.17712117      -0.34908125       0.00000000
Si       1.10247462      -2.01406302       0.38336356       0.00000000
Si      -0.05458779       1.54394991       1.83133555       0.00000000
Si       0.38493270      -1.85992704      -1.91774622       0.00000000
Si      -0.83069226       3.51811872       0.66972573       0.00000000
Si      -2.82152574       2.35043523       0.24671572       0.00000000
Si       1.82270439      -0.53615277      -3.27380586       0.00000000
Si       3.30569712       0.76476663      -1.68781061       0.00000000
Si      -3.47825709      -1.24124913       1.00587804       0.00000000
Si      -0.25031214      -3.86481879       0.19579084       0.00000000
