10
Lattice="16.28999089631971 0.0 0.0 0.0 16.28999089631971 0.0 0.0 0.0 34.385447050020396" Properties=species:S:1:pos:R:3:initial_magmoms:R:1 pbc="T T T"
Si       1.30284162      -1.41542181       1.31909526       0.00000000
Si      -0.42474546       1.53676602       1.83910666       0.00000000
Si       1.56499659       0.75305412      -1.71425304       0.00000000
Si      -2.01847761      -1.35412254      -0.33591162       0.00000000
Si      -0.53447490      -2.45848680       2.39381301       0.00000000
Si      -3.47305081       0.45240588       0.07337859       0.00000000
Si      -2.65527000       0.93222783       2.24647128       0.00000000
Si      -1.85867271      -2.03214492      -2.53971054       0.00000000
Si       2.50347978      -0.09518247       2.84519102       0.00000000
Si       3.63811086       0.99246825      -0.57454676       0.00000000
