10
Lattice="16.28999089631971 0.0 0.0 0.0 16.28999089631971 0.0 0.0 0.0 34.385447050020396" Properties=species:S:1:pos:R:3:initial_magmoms:R:1 pbc="T T T"
Si       1.80423153       1.49838678       0.03276935       0.00000000
Si       1.19382894      -1.93784211      -0.62873825       0.00000000
Si      -2.13905619       0.18018369      -0.99312104       0.00000000
Si      -0.37211247      -0.65694312       2.33044059       0.00000000
Si      -1.68132348      -2.47482567       1.55401676       0.00000000
Si       0.87156387       2.96438904       1.52551121       0.00000000
Si       1.96652880      -0.36126333       2.89288366       0.00000000
Si      -2.88512190      -1.98179253      -0.47204368       0.00000000
Si      -3.06884052       1.78114860       0.50054923       0.00000000
Si       3.41922213       0.20147472       1.07031641       0.00000000
