10
Lattice="16.28999089631971 0.0 0.0 0.0 16.28999089631971 0.0 0.0 0.0 34.385447050020396" Properties=species:S:1:pos:R:3:initial_magmoms:R:1 pbc="T T T"
Si       1.27462734      -1.35977517       1.44903793       0.00000000
Si       1.36102950       1.35645201      -1.37885720       0.00000000
Si      -1.35467640      -1.36067112      -1.38167681       0.00000000
Si      -1.51018074       1.19584890       1.41891627       0.00000000
Si      -0.54988524      -2.22650091       2.82817021       0.00000000
Si      -2.39920749      -0.70591086       2.65741199       0.00000000
Si       2.71156824       2.69263926      -0.00557045       0.00000000
Si      -2.70505224      -2.71184517      -0.04683301       0.00000000
Si      -2.72132595       2.71142163       0.00127226       0.00000000
Si       2.71774215      -2.71616202       0.01502645       0.00000000
