10
Lattice="16.28999089631971 0.0 0.0 0.0 16.28999089631971 0.0 0.0 0.0 34.385447050020396" Properties=species:S:1:pos:R:3:initial_magmoms:R:1 pbc="T T T"
Si      -1.25486757      -1.54002402      -1.27054298       0.00000000
Si       0.40475763      -0.48884661       2.28714929       0.00000000
Si       1.64108718       1.28433618      -1.24513212       0.00000000
Si      -2.46601278      -0.02445129      -2.68818698       0.00000000
Si       2.43657675      -1.68124203       2.21923799       0.00000000
Si       0.89360424       1.68435246       3.17704516       0.00000000
Si       0.25311402       2.69966581      -2.66745255       0.00000000
Si      -3.47710050      -0.93481794       1.23787679       0.00000000
Si       0.25531317      -2.73587292      -2.68945924       0.00000000
Si       2.96688141      -0.04323366      -2.69502969       0.00000000
