10
Lattice="16.28999089631971 0.0 0.0 0.0 16.28999089631971 0.0 0.0 0.0 34.385447050020396" Properties=species:S:1:pos:R:3:initial_magmoms:R:1 pbc="T T T"
Si       0.74714085      -1.91727794       1.16233535       0.00000000
Si      -0.47293291      -0.53125763      -2.31553934       0.00000000
Si      -1.97759834       0.80705547       1.17526773       0.00000000
Si       1.80190206       1.93391622      -0.14139991       0.00000000
Si       2.08453356      -0.55932041       2.54706215       0.00000000
Si      -0.64859938       2.17469871       2.55074140       0.00000000
Si      -1.20065119       1.61868843      -2.98767205       0.00000000
Si       3.45400128       0.80290152       1.15638323       0.00000000
Si       0.71561970       3.52284282       1.19554828       0.00000000
Si       2.06900919      -3.28553729      -0.48742086       0.00000000
