10
Lattice="16.28999089631971 0.0 0.0 0.0 16.28999089631971 0.0 0.0 0.0 34.385447050020396" Properties=species:S:1:pos:R:3:initial_magmoms:R:1 pbc="T T T"
Si      -0.27416070       1.98556366       1.24695455       0.00000000
Si      -1.48543786      -1.74438111       0.58008282       0.00000000
Si       0.15789897       1.16003533      -2.07619445       0.00000000
Si       2.20560084      -0.90140619      -0.08747663       0.00000000
Si       0.60729120      -0.63754077      -3.52506046       0.00000000
Si       2.02566150       2.66951560       1.48734334       0.00000000
Si       2.57517207      -1.02379296      -2.40987102       0.00000000
Si       3.40899201       0.68094318       1.20875230       0.00000000
Si      -1.36886499      -3.20867292      -1.28601644       0.00000000
Si      -1.88236651       3.37615951       0.07667959       0.00000000
