10
Lattice="16.28999089631971 0.0 0.0 0.0 16.28999089631971 0.0 0.0 0.0 34.385447050020396" Properties=species:S:1:pos:R:3:initial_magmoms:R:1 pbc="T T T"
Si       1.36190916      -1.35200484       1.36059851       0.00000000
Si      -1.35614250       1.35957969       1.36073606       0.00000000
Si      -1.36016613      -1.35272160      -1.36518897       0.00000000
Si       1.36601424       1.38717495      -1.35974576       0.00000000
Si      -2.48663592       0.14229315      -2.82380670       0.00000000
Si      -2.71331127      -2.71238274       0.00395433       0.00000000
Si       2.71422351       2.71314837       0.00543290       0.00000000
Si       0.02272455      -2.65209182      -2.77465268       0.00000000
Si       0.00120546      -2.71244464       2.71913390       0.00000000
Si      -2.71487511       2.71722087      -0.00158173       0.00000000
