10
Lattice="16.28999089631971 0.0 0.0 0.0 16.28999089631971 0.0 0.0 0.0 34.385447050020396" Properties=species:S:1:pos:R:3:initial_magmoms:R:1 pbc="T T T"
Si       1.35718506       1.35687555      -1.35819153       0.00000000
Si      -1.35801585      -1.35764118      -1.35805399       0.00000000
Si      -1.36197432       1.35738054       1.35712558       0.00000000
Si       1.36063854      -1.36032903       1.35863854       0.00000000
Si       2.71318095       2.71316466       0.00065332       0.00000000
Si      -2.71485882      -2.71379997      -0.00137542       0.00000000
Si       2.71536381      -2.71337643      -0.00120349       0.00000000
Si       2.70813105      -0.00868257       2.72154088       0.00000000
Si      -0.00074934       2.71500543      -2.71504203       0.00000000
Si       2.71461447       0.00000000      -2.71555781       0.00000000
