10
Lattice="16.28999089631971 0.0 0.0 0.0 16.28999089631971 0.0 0.0 0.0 34.385447050020396" Properties=species:S:1:pos:R:3:initial_magmoms:R:1 pbc="T T T"
Si       1.34934957       1.36143675      -1.37727547       0.00000000
Si      -1.37251395      -1.35081567      -1.37359622       0.00000000
Si      -1.15453746       1.49965740       1.43101995       0.00000000
Si       1.37288862      -1.40734197       1.48748089       0.00000000
Si      -2.59230915       0.17588313       2.78707958       0.00000000
Si       2.69684208       2.71308321      -0.01437312       0.00000000
Si       2.70295083      -2.70747293      -0.01801798       0.00000000
Si      -2.73168639      -2.70098137       0.02104391       0.00000000
Si       2.70407484       0.00838935      -2.73711750       0.00000000
Si      -0.01137042      -2.70880709      -2.73584524       0.00000000
