10
Lattice="16.28999089631971 0.0 0.0 0.0 16.28999089631971 0.0 0.0 0.0 34.385447050020396" Properties=species:S:1:pos:R:3:initial_magmoms:R:1 pbc="T T T"
Si       0.01609452       0.58824819       2.25695885       0.00000000
Si      -2.07311427      -0.23941413      -1.13970628       0.00000000
Si       0.86669316       2.00751444      -1.09235749       0.00000000
Si       1.76024853      -1.69666866      -0.17856373       0.00000000
Si       2.36319030       1.08996390       2.33374160       0.00000000
Si       2.74403421       2.35235745       0.29330803       0.00000000
Si      -1.13463108      -1.08765072       3.41973778       0.00000000
Si      -3.63811086      -0.99246825       0.57454676       0.00000000
Si       0.60474996      -3.73278834      -0.73247920       0.00000000
Si      -2.33526924      -2.40789006       1.89364201       0.00000000
