10
Lattice="16.28999089631971 0.0 0.0 0.0 16.28999089631971 0.0 0.0 0.0 34.385447050020396" Properties=species:S:1:pos:R:3:initial_magmoms:R:1 pbc="T T T"
Si       0.95868279      -1.98664695       0.63162663       0.00000000
Si      -0.48646827       1.41768612       1.82837840       0.00000000
Si       1.81133397       1.05586893      -1.10645553       0.00000000
Si      -1.57494978      -0.35183142      -1.75183635       0.00000000
Si      -1.95848154       2.53687428       0.45536673       0.00000000
Si       1.91355372      -2.59827129      -1.47056324       0.00000000
Si      -3.15911970       1.21663494      -1.07072903       0.00000000
Si      -0.70612263      -3.01042458       1.86616803       0.00000000
Si       1.58548941       2.41321689       2.31421065       0.00000000
Si       2.61961119      -1.45588617       2.17120150       0.00000000
