10
Lattice="16.28999089631971 0.0 0.0 0.0 16.28999089631971 0.0 0.0 0.0 34.385447050020396" Properties=species:S:1:pos:R:3:initial_magmoms:R:1 pbc="T T T"
Si      -2.07195768      -0.99553077      -0.48583225       0.00000000
Si       0.97696017      -1.85456763       1.11422665       0.00000000
Si      -0.49599792       1.63263267       1.66466919       0.00000000
Si       1.09287981       0.39789954      -2.11914190       0.00000000
Si       0.22584456      -1.35734796      -3.42066618       0.00000000
Si      -3.13263216      -1.09916775       1.61848951       0.00000000
Si      -1.58548941      -2.41321689      -2.31421065       0.00000000
Si      -0.04614957       2.30127201      -2.94484010       0.00000000
Si      -1.62054549       3.37613508       0.49999906       0.00000000
Si       3.28233726      -1.58110740       1.07200130       0.00000000
