10
Lattice="16.28999089631971 0.0 0.0 0.0 16.28999089631971 0.0 0.0 0.0 34.385447050020396" Properties=species:S:1:pos:R:3:initial_magmoms:R:1 pbc="T T T"
Si       2.30537709       0.27346023      -0.04222535       0.00000000
Si      -0.81107910      -0.54260361       2.14713167       0.00000000
Si      -0.97696017       1.85456763      -1.11422665       0.00000000
Si       0.05716161      -2.01453543      -1.25723580       0.00000000
Si      -3.04891785       0.85903686      -1.60005890       0.00000000
Si      -3.07600812      -0.93353103       1.76115481       0.00000000
Si       1.89657954      -1.80074547      -2.74069359       0.00000000
Si       3.30830352      -1.69451838       0.80994966       0.00000000
Si      -1.47295809       3.48720030       0.55044254       0.00000000
Si       3.12507360       0.15498306      -2.22518668       0.00000000
