10
Lattice="16.28999089631971 0.0 0.0 0.0 16.28999089631971 0.0 0.0 0.0 34.385447050020396" Properties=species:S:1:pos:R:3:initial_magmoms:R:1 pbc="T T T"
Si       0.93035448       1.05554313       1.85186367       0.00000000
Si       0.64102779       1.26949599      -1.87008797       0.00000000
Si       1.09722924      -2.11191705      -0.19431227       0.00000000
Si      -2.13786702       1.07124669       0.15683211       0.00000000
Si       0.03787425      -1.47466854      -2.93730968       0.00000000
Si      -1.39079133       2.46189141      -1.80217667       0.00000000
Si      -3.37475043      -0.88987383       0.44202517       0.00000000
Si       2.97457029      -1.76707404       1.19135325       0.00000000
Si       2.15184384       2.91843495      -1.05611521       0.00000000
Si      -2.61868266      -2.38467681      -1.40327088       0.00000000
