10
Lattice="16.28999089631971 0.0 0.0 0.0 16.28999089631971 0.0 0.0 0.0 34.385447050020396" Properties=species:S:1:pos:R:3:initial_magmoms:R:1 pbc="T T T"
Si       1.87734105       0.34484301       1.38566552       0.00000000
Si      -1.09722924       2.11191705       0.19431227       0.00000000
Si      -0.86669316      -2.00751444       1.09235749       0.00000000
Si       1.66109130      -0.14753853      -2.06931736       0.00000000
Si      -1.05935499       0.63724851      -2.74299742       0.00000000
Si       3.37975146      -0.57534651      -0.23670955       0.00000000
Si      -2.93980743      -2.24692857      -0.04734879       0.00000000
Si      -0.85059864      -1.41926625       3.34931634       0.00000000
Si      -0.16687476       3.16746018       2.04617594       0.00000000
Si      -0.45620145       3.38141304      -1.67577570       0.00000000
