10
Lattice="16.28999089631971 0.0 0.0 0.0 16.28999089631971 0.0 0.0 0.0 34.385447050020396" Properties=species:S:1:pos:R:3:initial_magmoms:R:1 pbc="T T T"
Si       0.12170259      -1.63760112      -1.62227191       0.00000000
Si      -1.61499060       1.29691206      -1.03754706       0.00000000
Si       1.83839166       1.19322621       0.81307874       0.00000000
Si      -1.45269333      -0.56273805       1.82256725       0.00000000
Si      -1.59832593       1.79146017       2.40144658       0.00000000
Si      -2.22539319      -2.13931683      -1.69905466       0.00000000
Si       0.65270772       2.57189778       2.35172519       0.00000000
Si      -3.41922213      -0.20147472      -1.07031641       0.00000000
Si       3.04811964      -0.39524427       2.04531630       0.00000000
Si       0.50254650      -0.37520757      -3.66270548       0.00000000
