10
Lattice="16.28999089631971 0.0 0.0 0.0 16.28999089631971 0.0 0.0 0.0 34.385447050020396" Properties=species:S:1:pos:R:3:initial_magmoms:R:1 pbc="T T T"
Si      -0.33518304       1.85543100      -1.58695804       0.00000000
Si      -0.40407345       1.21950198       2.10542210       0.00000000
Si       2.23614459      -1.07544951      -0.25194231       0.00000000
Si      -2.22312888      -1.59870060      -0.14816697       0.00000000
Si       1.48628331       1.04387949      -2.84556926       0.00000000
Si      -1.36420605      -0.45773271       3.50047627       0.00000000
Si       3.54105504       0.78292998      -1.35107374       0.00000000
Si      -2.53200357       1.79812278      -2.48751340       0.00000000
Si       3.26261007      -1.50265476       1.89003154       0.00000000
Si      -3.14985069      -1.55220894       2.11804157       0.00000000
