10
Lattice="16.28999089631971 0.0 0.0 0.0 16.28999089631971 0.0 0.0 0.0 34.385447050020396" Properties=species:S:1:pos:R:3:initial_magmoms:R:1 pbc="T T T"
Si       1.29052638      -1.35907470       1.31568766       0.00000000
Si      -0.83799018      -1.78266357      -1.28456193       0.00000000
Si       1.63867626       1.06287363      -1.33013437       0.00000000
Si      -1.44679635       1.38479606       1.28905955       0.00000000
Si      -2.09841264      -0.54812592      -2.89199449       0.00000000
Si       2.58416415      -2.66509287      -0.25508514       0.00000000
Si       2.61641835       0.02891475       2.65694091       0.00000000
Si       3.34225188      -0.73806732      -1.58572502       0.00000000
Si      -0.09839160      -2.68597665       2.66010437       0.00000000
Si      -2.69526195      -2.66271453      -0.09222870       0.00000000
