10
Lattice="16.28999089631971 0.0 0.0 0.0 16.28999089631971 0.0 0.0 0.0 34.385447050020396" Properties=species:S:1:pos:R:3:initial_magmoms:R:1 pbc="T T T"
Si      -1.29052638       1.35907470      -1.31568766       0.00000000
Si       1.32589197       1.38798945       1.34125325       0.00000000
Si      -1.38891798      -1.32690195       1.34441671       0.00000000
Si       1.29363777      -1.30601817      -1.57077280       0.00000000
Si      -2.12851656      -0.42358887      -2.60024959       0.00000000
Si       0.34814988       2.42194833      -2.64582202       0.00000000
Si       2.05172550       0.62100738      -2.90141267       0.00000000
Si      -0.47680830      -2.36923389      -2.84618961       0.00000000
Si       2.67732666      -2.66496255      -0.03437515       0.00000000
Si      -0.03269403      -2.67915114       2.70002934       0.00000000
