10
Lattice="16.28999089631971 0.0 0.0 0.0 16.28999089631971 0.0 0.0 0.0 34.385447050020396" Properties=species:S:1:pos:R:3:initial_magmoms:R:1 pbc="T T T"
Si       0.93266766      -1.46600226      -1.49274186       0.00000000
Si       1.07834913       2.03188428      -0.35654290       0.00000000
Si       0.94933233      -0.97145415       1.94625178       0.00000000
Si      -2.12814189       0.38258694      -1.00017006       0.00000000
Si      -0.87156387      -2.96438904      -1.52551121       0.00000000
Si      -2.57342904       2.40645654       0.04150326       0.00000000
Si       0.90904716       1.94794191      -2.79254687       0.00000000
Si       1.00598895      -0.31550472      -3.45738986       0.00000000
Si       3.20036598      -0.19101654       1.89653039       0.00000000
Si       1.09496493      -3.32565237       1.36737245       0.00000000
