10
Lattice="16.28999089631971 0.0 0.0 0.0 16.28999089631971 0.0 0.0 0.0 34.385447050020396" Properties=species:S:1:pos:R:3:initial_magmoms:R:1 pbc="T T T"
Si       1.72491552       0.12176775      -1.52767750       0.00000000
Si       0.74556072       1.83164664       1.25847368       0.00000000
Si      -2.07586728       0.13310559      -1.13090360       0.00000000
Si       0.04614957      -2.08979523       1.12216969       0.00000000
Si      -2.73031803       2.26578329      -0.35502994       0.00000000
Si      -0.79744437       1.78900268       3.04562390       0.00000000
Si       2.70715365      -1.98415458      -1.52798696       0.00000000
Si       1.23183351      -3.46846680      -0.41647677       0.00000000
Si      -3.15421641      -1.89877869      -0.77436070       0.00000000
Si      -2.20488408      -2.87023284       1.17189108       0.00000000
