10
Lattice="16.28999089631971 0.0 0.0 0.0 16.28999089631971 0.0 0.0 0.0 34.385447050020396" Properties=species:S:1:pos:R:3:initial_magmoms:R:1 pbc="T T T"
Si      -0.04614957       2.08979523      -1.12216969       0.00000000
Si       1.14007194      -0.06476904       2.07980493       0.00000000
Si       1.18568394      -1.37867157      -1.53864646       0.00000000
Si      -2.25103365      -0.78043761       0.04972138       0.00000000
Si      -0.65270772      -2.57189778      -2.35172519       0.00000000
Si      -3.20036598       0.19101654      -1.89653039       0.00000000
Si      -3.21960447       0.31552101       1.89044416       0.00000000
Si       2.66100408       0.10564065      -2.65015666       0.00000000
Si      -2.12201685       2.22290082      -2.25307329       0.00000000
Si      -2.10540105      -3.13463583      -0.52915794       0.00000000
