10
Lattice="16.28999089631971 0.0 0.0 0.0 16.28999089631971 0.0 0.0 0.0 34.385447050020396" Properties=species:S:1:pos:R:3:initial_magmoms:R:1 pbc="T T T"
Si       0.05778063      -1.74860118       1.56409170       0.00000000
Si       0.96857082      -1.09595862      -1.84072278       0.00000000
Si      -2.36050245       0.43805439      -0.24994795       0.00000000
Si       1.45788984       1.63460376       1.12075989       0.00000000
Si      -2.76571620       0.91354320       2.02688569       0.00000000
Si      -1.58302962      -0.78306030       3.23113349       0.00000000
Si       2.25460116      -1.69129296       2.46464707       0.00000000
Si       3.21960447      -0.31552101      -1.89044416       0.00000000
Si       0.01923849      -0.12450447      -3.78697456       0.00000000
Si       3.26456487       0.46747413       2.07093348       0.00000000
