10
Lattice="16.28999089631971 0.0 0.0 0.0 16.28999089631971 0.0 0.0 0.0 34.385447050020396" Properties=species:S:1:pos:R:3:initial_magmoms:R:1 pbc="T T T"
Si       1.15285959      -1.43673795       1.43291115       0.00000000
Si       0.11525175      -0.17659500      -2.32799922       0.00000000
Si       0.68369130       2.12721173       0.82494172       0.00000000
Si      -2.41730568      -0.18148037       0.06622641       0.00000000
Si      -2.56745061       1.80719468      -1.24224374       0.00000000
Si      -0.18668340       1.68547580       2.95178597       0.00000000
Si      -0.72803268       2.02098464      -2.72570153       0.00000000
Si      -1.43795088      -1.89135927      -2.71992477       0.00000000
Si       1.33206588      -0.08705213       3.48589541       0.00000000
Si      -3.16286640      -2.01312702      -1.19224727       0.00000000
