10
Lattice="16.28999089631971 0.0 0.0 0.0 16.28999089631971 0.0 0.0 0.0 34.385447050020396" Properties=species:S:1:pos:R:3:initial_magmoms:R:1 pbc="T T T"
Si      -0.87037470      -0.44173593       2.12684424       0.00000000
Si      -1.00292643       1.96797861      -0.85217501       0.00000000
Si      -0.68369130      -2.12721173      -0.82494172       0.00000000
Si       2.25824916       0.76729158      -0.26349583       0.00000000
Si       0.64837458      -2.21426386       2.66095369       0.00000000
Si      -0.18322992       1.84950144      -3.03513634       0.00000000
Si       2.08645808       1.30399821      -2.58186712       0.00000000
Si       0.46916829      -3.56394968       0.60796943       0.00000000
Si      -0.58922559       1.67080014       3.22150556       0.00000000
Si       2.07087832       2.99814192       0.57389343       0.00000000
