10
Lattice="16.28999089631971 0.0 0.0 0.0 16.28999089631971 0.0 0.0 0.0 34.385447050020396" Properties=species:S:1:pos:R:3:initial_magmoms:R:1 pbc="T T T"
Si       1.34820927       1.32597342       1.36517866       0.00000000
Si       1.42433244      -1.29402873      -1.32499236       0.00000000
Si      -1.36601424      -1.38717495       1.35974576       0.00000000
Si      -1.07911476       1.57925034      -1.51372731       0.00000000
Si      -1.98294912      -0.36874044      -2.63367777       0.00000000
Si      -0.39508137      -2.18025360      -2.77598137       0.00000000
Si      -2.71083519       2.68902288      -0.02463719       0.00000000
Si      -0.00461007       2.68876224       2.72051620       0.00000000
Si       2.71333074       2.69990460      -0.01326935       0.00000000
Si       2.71002069      -0.02586852       2.72433298       0.00000000
