10
Lattice="16.28999089631971 0.0 0.0 0.0 16.28999089631971 0.0 0.0 0.0 34.385447050020396" Properties=species:S:1:pos:R:3:initial_magmoms:R:1 pbc="T T T"
Si       1.80616094       0.97292025       1.11415788       0.00000000
Si      -1.19451312       1.49235948      -1.37569373       0.00000000
Si       1.47302555      -1.22373738      -1.38439326       0.00000000
Si      -1.71953982      -0.88413975       1.46664329       0.00000000
Si      -2.56891671      -2.60511309       0.03854611       0.00000000
Si      -3.27676608       1.06090254       1.26930510       0.00000000
Si       0.78387384       2.56785786       2.52482163       0.00000000
Si      -2.56442067       0.13561425      -2.72525451       0.00000000
Si       0.15077270      -2.58020568      -2.73037795       0.00000000
Si      -2.43385632       2.89334835       0.01392611       0.00000000
