10
Lattice="16.28999089631971 0.0 0.0 0.0 16.28999089631971 0.0 0.0 0.0 34.385447050020396" Properties=species:S:1:pos:R:3:initial_magmoms:R:1 pbc="T T T"
Si      -1.35391077       1.36078515       1.36334935       0.00000000
Si       1.36350558      -1.35651717       1.36190516       0.00000000
Si      -1.34271954      -1.35625653      -1.38324822       0.00000000
Si       1.35610992       1.37497374      -1.37105513       0.00000000
Si       0.28900089      -2.46602907      -2.87233835       0.00000000
Si      -2.71013472       2.71303434       0.00773673       0.00000000
Si      -2.71277370      -2.71523349      -0.00044701       0.00000000
Si      -2.71164969       0.00053757       2.72054371       0.00000000
Si       0.00371412      -2.71446786       2.72002792       0.00000000
Si       2.71632492      -2.71930599       0.00656762       0.00000000
