10
Lattice="16.28999089631971 0.0 0.0 0.0 16.28999089631971 0.0 0.0 0.0 34.385447050020396" Properties=species:S:1:pos:R:3:initial_magmoms:R:1 pbc="T T T"
Si      -1.23934320       1.40098887       1.38961985       0.00000000
Si       1.34884141       1.35210258      -1.35234600       0.00000000
Si      -1.36990755      -1.35674523      -1.34956078       0.00000000
Si       1.19451312      -1.49235948       1.37569373       0.00000000
Si      -2.08225296      -0.43145694       2.64499884       0.00000000
Si      -0.52502670      -2.37649923       2.84233703       0.00000000
Si       0.36325071       2.45394189       2.80540704       0.00000000
Si       2.66753867      -2.71609686      -0.00869952       0.00000000
Si       2.70356889       0.00112401      -2.70861195       0.00000000
Si       2.70914007       2.70987408      -0.00986863       0.00000000
