10
Lattice="16.28999089631971 0.0 0.0 0.0 16.28999089631971 0.0 0.0 0.0 34.385447050020396" Properties=species:S:1:pos:R:3:initial_magmoms:R:1 pbc="T T T"
Si       0.95607639       1.51674561      -1.48101642       0.00000000
Si      -0.23571630       1.28293524       1.94872753       0.00000000
Si      -1.60259391      -1.05295302      -1.41578719       0.00000000
Si       1.61513625      -1.37844351       1.09510833       0.00000000
Si       2.34588936       0.25593219      -2.81527567       0.00000000
Si       2.32323975       2.84584671      -0.20287425       0.00000000
Si      -0.36325071      -2.45394189      -2.80540704       0.00000000
Si      -2.44550367      -2.88539883      -0.16040820       0.00000000
Si       1.03957748       3.33177741       1.73079244       0.00000000
Si      -3.03896466       0.06618627       2.44827958       0.00000000
