10
Lattice="16.28999089631971 0.0 0.0 0.0 16.28999089631971 0.0 0.0 0.0 34.385447050020396" Properties=species:S:1:pos:R:3:initial_magmoms:R:1 pbc="T T T"
Si      -1.83839166      -1.19322621      -0.81307874       0.00000000
Si       1.20972798      -1.58847048       1.23223757       0.00000000
Si       1.47532014       1.48431222      -1.11151020       0.00000000
Si      -1.18568394       1.37867157       1.53864646       0.00000000
Si       3.41656686       0.77128263       0.03692999       0.00000000
Si       2.88385128      -0.12574251       2.12498743       0.00000000
Si      -1.23183351       3.46846680       0.41647677       0.00000000
Si       0.49308201       3.59023455      -1.11120073       0.00000000
Si      -3.43671759       0.59823396       1.58836784       0.00000000
Si      -0.04561200       1.31390253       3.61845139       0.00000000
