10
Lattice="16.28999089631971 0.0 0.0 0.0 16.28999089631971 0.0 0.0 0.0 34.385447050020396" Properties=species:S:1:pos:R:3:initial_magmoms:R:1 pbc="T T T"
Si       0.99758331      -1.18822518      -1.72804161       0.00000000
Si      -0.97140528      -1.46688192       1.51760255       0.00000000
Si      -1.89003096       1.08458820      -0.84966487       0.00000000
Si       1.72300959       1.25216343       1.07186375       0.00000000
Si      -0.51160374       1.95941007      -2.58468673       0.00000000
Si       0.00421911       2.47827915       2.31269769       0.00000000
Si      -2.05055262       2.73922866       0.81820217       0.00000000
Si      -1.30069134       0.61989966       3.41182912       0.00000000
Si       2.56322240      -0.42539706       2.68691472       0.00000000
Si       2.96427079      -2.13516288      -0.80936510       0.00000000
