10
Lattice="16.28999089631971 0.0 0.0 0.0 16.28999089631971 0.0 0.0 0.0 34.385447050020396" Properties=species:S:1:pos:R:3:initial_magmoms:R:1 pbc="T T T"
Si       0.16052166      -1.65464046      -1.66786704       0.00000000
Si      -1.82146635       0.81155151       1.25861122       0.00000000
Si       0.28360890       2.12255442      -1.01667508       0.00000000
Si       2.05477173      -0.26094951       1.49449552       0.00000000
Si      -0.81150264       2.97031860       0.86489763       0.00000000
Si      -1.48628331      -1.04387949       2.84556926       0.00000000
Si       0.74986128      -2.11932900       2.59362695       0.00000000
Si       2.05055262      -2.73922866      -0.81820217       0.00000000
Si       1.53894888      -0.77981859      -3.40288890       0.00000000
Si       2.52047025       2.63300157      -1.30998311       0.00000000
