10
Lattice="16.28999089631971 0.0 0.0 0.0 16.28999089631971 0.0 0.0 0.0 34.385447050020396" Properties=species:S:1:pos:R:3:initial_magmoms:R:1 pbc="T T T"
Si       1.33819092       1.34398269       1.39166922       0.00000000
Si      -1.37828061      -1.36576989       1.39400743       0.00000000
Si      -1.35812988       1.41174909      -1.38408379       0.00000000
Si       1.36767582      -1.44653571      -1.61928725       0.00000000
Si      -2.35602270      -0.33181101      -2.59306784       0.00000000
Si      -0.65244708      -2.13275196      -2.84865849       0.00000000
Si       2.71309805       2.70769841       0.02565156       0.00000000
Si       2.69034237      -2.74957281      -0.01025718       0.00000000
Si       2.69172331      -0.00426516       2.75168318       0.00000000
Si      -2.74102056       2.71111931       0.02537991       0.00000000
