10
Lattice="16.28999089631971 0.0 0.0 0.0 16.28999089631971 0.0 0.0 0.0 34.385447050020396" Properties=species:S:1:pos:R:3:initial_magmoms:R:1 pbc="T T T"
Si      -1.10903949       0.21051567      -2.06292166       0.00000000
Si      -0.34793811      -1.13847552       2.06354060       0.00000000
Si       2.25758942       0.50761269      -0.59053600       0.00000000
Si      -0.60069375       2.08845945       1.30836699       0.00000000
Si      -2.54845647       0.61670682       1.77752229       0.00000000
Si      -1.57473801      -2.68343541       0.74155697       0.00000000
Si      -0.21639636       2.43102186      -2.34642983       0.00000000
Si       3.20382665      -1.63453860      -0.95165216       0.00000000
Si      -0.41643756      -1.73957652      -3.26307759       0.00000000
Si       1.96961317       1.64172249      -2.71449186       0.00000000
