10
Lattice="16.28999089631971 0.0 0.0 0.0 16.28999089631971 0.0 0.0 0.0 34.385447050020396" Properties=species:S:1:pos:R:3:initial_magmoms:R:1 pbc="T T T"
Si       0.52703037      -2.17331406      -0.59579697       0.00000000
Si      -1.68634080       0.40368249       1.55157539       0.00000000
Si       1.99083348       1.16768349       0.42301001       0.00000000
Si      -0.21020616      -1.14999255      -2.56219863       0.00000000
Si      -2.06045694       0.53072820      -2.49026424       0.00000000
Si       2.76693795      -0.80648532       1.58461983       0.00000000
Si      -1.00569573       2.72842839       1.64967713       0.00000000
Si      -1.01369412       3.33449784      -0.59634714       0.00000000
Si       2.51939511       1.54072449      -2.12433411       0.00000000
Si       2.82152574      -2.35043523      -0.24671572       0.00000000
