10
Lattice="16.28999089631971 0.0 0.0 0.0 16.28999089631971 0.0 0.0 0.0 34.385447050020396" Properties=species:S:1:pos:R:3:initial_magmoms:R:1 pbc="T T T"
Si       1.35684297      -1.35430173      -1.36032343       0.00000000
Si       1.35718506       1.35861858       1.35819153       0.00000000
Si      -1.35921642      -1.35687555       1.35908555       0.00000000
Si      -1.36056686       1.36044306      -1.36290234       0.00000000
Si      -2.71476827      -2.71440270       0.00116911       0.00000000
Si       2.71365336       2.71698556       0.00443573       0.00000000
Si       2.71448415       0.00019548       2.71648622       0.00000000
Si      -0.00048870      -2.71487511       2.71662376       0.00000000
Si       2.71332756      -2.71819827       0.00068771       0.00000000
Si      -0.00061902       2.71526615       2.71676130       0.00000000
