10
Lattice="16.28999089631971 0.0 0.0 0.0 16.28999089631971 0.0 0.0 0.0 34.385447050020396" Properties=species:S:1:pos:R:3:initial_magmoms:R:1 pbc="T T T"
Si      -1.38981297       1.26081342       1.33425925       0.00000000
Si       1.27966909      -1.47297438       1.29433772       0.00000000
Si       1.35305554       1.36506942      -1.34168651       0.00000000
Si      -1.36029867      -1.35777150      -1.34247737       0.00000000
Si      -2.34588936      -0.25593219       2.81527567       0.00000000
Si      -0.02264962       2.58991452       2.61240141       0.00000000
Si       2.70900256       0.00433314      -2.69846824       0.00000000
Si      -0.00557118      -2.70875007      -2.69874332       0.00000000
Si      -0.00784689       2.71844262      -2.69778053       0.00000000
Si      -2.72077113       0.00434943      -2.69771176       0.00000000
