10
Lattice="16.28999089631971 0.0 0.0 0.0 16.28999089631971 0.0 0.0 0.0 34.385447050020396" Properties=species:S:1:pos:R:3:initial_magmoms:R:1 pbc="T T T"
Si      -1.64201897      -1.52790426       0.80001226       0.00000000
Si       2.01065841      -0.63925218       1.14128801       0.00000000
Si      -0.41847381       1.95522354       1.34000162       0.00000000
Si      -1.04873717      -0.07141536      -2.30183188       0.00000000
Si      -0.44540118       2.27897100      -2.28034097       0.00000000
Si      -2.76355682      -1.41084432      -1.28642906       0.00000000
Si      -0.56640330       0.76556484       3.33160783       0.00000000
Si      -2.53631132      -0.25441722       2.56106391       0.00000000
Si       1.07066025      -1.01783178       3.32579668       0.00000000
Si       1.58105853       3.04738659      -1.25441619       0.00000000
