10
Lattice="16.28999089631971 0.0 0.0 0.0 16.28999089631971 0.0 0.0 0.0 34.385447050020396" Properties=species:S:1:pos:R:3:initial_magmoms:R:1 pbc="T T T"
Si       1.82822670       1.38147345      -0.24743782       0.00000000
Si      -0.14792949      -1.18965870       1.99160621       0.00000000
Si       0.41847381      -1.95522354      -1.34000162       0.00000000
Si      -1.39539163       1.90456883      -0.47751097       0.00000000
Si      -2.11783751      -2.20964076       1.22106229       0.00000000
Si       1.99953234       1.09216305      -2.59441782       0.00000000
Si       2.42913222      -2.59447572      -0.19871361       0.00000000
Si      -0.02692737       0.32374746      -3.62034259       0.00000000
Si       1.37883447       3.17904956       1.20142819       0.00000000
Si      -1.22354516      -3.48312780      -0.53998936       0.00000000
