10
Lattice="10.86 0.0 0.0 0.0 10.86 0.0 0.0 0.0 10.86" Properties=species:S:1:pos:R:3:initial_magmoms:R:1 pbc="T T T"
Si      -1.21095516      -1.31349528       1.41911964       0.00000000
Si       1.50404484      -1.31349528      -1.29588036       0.00000000
Si       1.50404484       1.40150472       1.41911964       0.00000000
Si      -2.34694374       0.08502294       2.73378780       0.00000000
Si      -2.54492154       0.21079260      -2.60422800       0.00000000
Si      -2.56845516      -2.67099528       0.06161964       0.00000000
Si       0.14654484      -2.67099528      -2.65338036       0.00000000
Si       0.14654484      -2.67099528       2.77661964       0.00000000
Si       0.20609022       2.71713942      -2.79285534       0.00000000
Si       2.86154484       0.04400472      -2.65338036       0.00000000
