10
Lattice="10.86 0.0 0.0 0.0 10.86 0.0 0.0 0.0 10.86" Properties=species:S:1:pos:R:3:initial_magmoms:R:1 pbc="T T T"
Si       1.19558826      -1.39355520      -1.27230330       0.00000000
Si      -1.53438768       1.44132834      -1.13747640       0.00000000
Si       1.18061232       1.44132834       1.57752360       0.00000000
Si      -1.53438768      -1.27367166       1.57752360       0.00000000
Si       2.62325472       0.02064486      -2.60421714       0.00000000
Si      -0.23596608      -2.65874520      -2.61267708       0.00000000
Si      -0.17688768       2.79882834      -2.49497640       0.00000000
Si       0.00375756      -2.65760490       2.69097768       0.00000000
Si       2.53811232       2.79882834       0.22002360       0.00000000
Si      -2.89188768       0.08382834      -2.49497640       0.00000000
