10
Lattice="10.86 0.0 0.0 0.0 10.86 0.0 0.0 0.0 10.86" Properties=species:S:1:pos:R:3:initial_magmoms:R:1 pbc="T T T"
Si      -1.24550082      -1.43160864       1.36972836       0.00000000
Si       1.46949918       1.28339136       1.36972836       0.00000000
Si       1.46949918      -1.43160864      -1.34527164       0.00000000
Si       0.04981482       2.57916312      -2.54952618       0.00000000
Si      -2.38148940      -2.74809042      -0.03060348       0.00000000
Si      -2.60300082      -0.07410864       2.72722836       0.00000000
Si      -2.70700704       2.62990104       0.07868070       0.00000000
Si       0.11199918       2.64089136       2.72722836       0.00000000
Si       2.82699918       2.64089136       0.01222836       0.00000000
Si       0.11199918      -2.78910864       2.72722836       0.00000000
