10
Lattice="10.86 0.0 0.0 0.0 10.86 0.0 0.0 0.0 10.86" Properties=species:S:1:pos:R:3:initial_magmoms:R:1 pbc="T T T"
Si      -1.37775390      -1.25608932      -1.25226660       0.00000000
Si       1.33724610       1.45891068      -1.25226660       0.00000000
Si       1.33724610      -1.25608932       1.46273340       0.00000000
Si      -0.02025390      -2.61358932      -2.60976660       0.00000000
Si       2.69474610       0.10141068      -2.60976660       0.00000000
Si       2.69474610      -2.61358932       0.10523340       0.00000000
Si      -2.73525390       0.10141068      -2.60976660       0.00000000
Si      -2.73525390      -2.61358932       0.10523340       0.00000000
Si      -0.02025390       2.81641068      -2.60976660       0.00000000
Si      -0.02025390      -2.61358932       2.82023340       0.00000000
