10
Lattice="10.86 0.0 0.0 0.0 10.86 0.0 0.0 0.0 10.86" Properties=species:S:1:pos:R:3:initial_magmoms:R:1 pbc="T T T"
Si      -1.34961564       1.24947558       1.27615860       0.00000000
Si       1.36538436      -1.46552442       1.27615860       0.00000000
Si      -1.34961564      -1.46552442      -1.43884140       0.00000000
Si       0.00788436       2.60697558       2.63365860       0.00000000
Si      -2.70711564       2.60697558      -0.08134140       0.00000000
Si      -2.70711564      -0.10802442       2.63365860       0.00000000
Si       2.72288436      -0.10802442       2.63365860       0.00000000
Si       0.00788436      -2.82302442       2.63365860       0.00000000
Si       0.09933642       2.71132932      -2.77497978       0.00000000
Si       2.89656834       2.58890454       0.06286854       0.00000000
