10
Lattice="16.28999089631971 0.0 0.0 0.0 16.28999089631971 0.0 0.0 0.0 34.25627252547053" Properties=species:S:1:pos:R:3:initial_magmoms:R:1 pbc="T T T"
Si      -1.29513564       1.32141059       1.38278947       0.00000000
Si       1.33679487       1.35296432      -1.34791656       0.00000000
Si       1.42230108      -1.30133984       1.34596396       0.00000000
Si      -1.38002594      -1.36358239      -1.34291515       0.00000000
Si      -2.06430368      -0.65910317       2.51167131       0.00000000
Si      -0.28228615      -2.28932397       2.53215657       0.00000000
Si       2.69301882       2.69475533       0.05391940       0.00000000
Si       2.69217174      -0.00251843      -2.70217054       0.00000000
Si      -0.02164941       2.70912311      -2.70302695       0.00000000
Si      -0.02219512      -2.71884240      -2.70398613       0.00000000
