10
Lattice="16.28999089631971 0.0 0.0 0.0 16.28999089631971 0.0 0.0 0.0 34.25627252547053" Properties=species:S:1:pos:R:3:initial_magmoms:R:1 pbc="T T T"
Si       1.35742941      -1.35706940      -1.35754258       0.00000000
Si      -1.35881406      -1.35505921       1.35846750       0.00000000
Si       1.35866745       1.35698958       1.35723428       0.00000000
Si      -1.35808101       1.35824391      -1.35750833       0.00000000
Si       2.71428867       0.00026064       2.71203636       0.00000000
Si      -2.71419093       0.00042354       2.71272148       0.00000000
Si      -2.71443528      -2.71490564       0.00027405       0.00000000
Si      -2.71585251       0.00100998      -2.71364640       0.00000000
Si      -0.00055386       2.71492398      -2.71460558       0.00000000
Si       2.71489140      -2.71466813       0.00020554       0.00000000
