10
Lattice="16.28999089631971 0.0 0.0 0.0 16.28999089631971 0.0 0.0 0.0 34.25627252547053" Properties=species:S:1:pos:R:3:initial_magmoms:R:1 pbc="T T T"
Si      -1.35622395      -1.34179101      -1.40183597       0.00000000
Si       1.35741312       1.37321442      -1.39471066       0.00000000
Si      -1.48660911       1.35193968       1.39745116       0.00000000
Si       1.40761890      -1.48898745       1.51971187       0.00000000
Si      -2.69301882      -2.69475533      -0.05391940       0.00000000
Si       2.73569373      -2.70106933      -0.01507277       0.00000000
Si       2.70182682       2.74559805      -0.02702821       0.00000000
Si      -0.00084708      -2.69727376      -2.75608995       0.00000000
Si      -2.73319973       2.72595231      -0.03980581       0.00000000
Si      -2.71466823       0.01436778      -2.75694635       0.00000000
