10
Lattice="16.28999089631971 0.0 0.0 0.0 16.28999089631971 0.0 0.0 0.0 34.25627252547053" Properties=species:S:1:pos:R:3:initial_magmoms:R:1 pbc="T T T"
Si       1.62111564      -1.70339873      -0.25236610       0.00000000
Si       0.62305992       1.87118832      -1.49436221       0.00000000
Si      -1.97583039      -0.95891315       1.34445668       0.00000000
Si       1.69947054       1.08008076       1.72196101       0.00000000
Si      -2.05527672      -0.63591941      -1.72202953       0.00000000
Si       1.95113475       0.65910643      -3.02914685       0.00000000
Si       3.37387077      -0.58617626      -1.41845027       0.00000000
Si      -0.77877603      -2.06974454      -3.03962927       0.00000000
Si       0.60085665      -3.41326229      -1.54375978       0.00000000
Si       0.29382273       2.23509063       3.16511007       0.00000000
