10
Lattice="16.28999089631971 0.0 0.0 0.0 16.28999089631971 0.0 0.0 0.0 34.25627252547053" Properties=species:S:1:pos:R:3:initial_magmoms:R:1 pbc="T T T"
Si       0.27598518       0.72386244       2.21231726       0.00000000
Si       1.26486963      -1.92260119      -0.53518604       0.00000000
Si      -2.27613654      -0.31604229       0.55991909       0.00000000
Si       1.21292082       2.31966342       0.66724405       0.00000000
Si      -2.07342378      -1.23483087      -1.62429633       0.00000000
Si      -0.23193702      -2.73466257      -2.10131519       0.00000000
Si       3.18081798       1.46495970      -0.75237093       0.00000000
Si      -1.78632882       0.70351623      -3.22464750       0.00000000
Si       3.69150948      -0.69323724       0.66960773       0.00000000
Si       1.33071381      -0.82916100       3.62431022       0.00000000
