10
Lattice="16.28999089631971 0.0 0.0 0.0 16.28999089631971 0.0 0.0 0.0 34.25627252547053" Properties=species:S:1:pos:R:3:initial_magmoms:R:1 pbc="T T T"
Si      -1.49680665      -0.81206139      -1.56612914       0.00000000
Si       0.22312413      -1.85161981       1.42639773       0.00000000
Si      -1.26486963       1.92260119       0.53518604       0.00000000
Si       2.42663985       1.22936395       1.20479378       0.00000000
Si       1.42091154      -0.35389699       2.81626253       0.00000000
Si      -0.09607842      -0.12885227      -3.30802732       0.00000000
Si       3.49055604      -0.61296338       0.12119876       0.00000000
Si      -3.33829341       0.68777032      -1.08911028       0.00000000
Si       1.23344622      -3.52323445       0.04350549       0.00000000
Si       1.91594835       3.38756089      -0.21718489       0.00000000
