10
Lattice="16.28999089631971 0.0 0.0 0.0 16.28999089631971 0.0 0.0 0.0 34.25627252547053" Properties=species:S:1:pos:R:3:initial_magmoms:R:1 pbc="T T T"
Si      -1.35790182      -1.35648459      -1.35737130       0.00000000
Si       1.35713619       1.35829278      -1.35709725       0.00000000
Si      -1.35505107       1.35671265       1.36346892       0.00000000
Si       1.35707103      -1.35664749       1.36281805       0.00000000
Si      -0.00045612      -2.71383255      -2.71453706       0.00000000
Si      -2.71386513       0.00004887      -2.71460558       0.00000000
Si       2.71482624       0.00073305      -2.71446855       0.00000000
Si      -0.00026064       2.71531494      -2.71433153       0.00000000
Si      -2.71501032      -2.71549413       0.00058236       0.00000000
Si       2.71629234      -2.71508688       0.00020554       0.00000000
