10
Lattice="16.28999089631971 0.0 0.0 0.0 16.28999089631971 0.0 0.0 0.0 34.25627252547053" Properties=species:S:1:pos:R:3:initial_magmoms:R:1 pbc="T T T"
Si      -0.35525232       2.11199850      -0.86867104       0.00000000
Si      -1.70338014      -1.13433786       1.09106289       0.00000000
Si       0.55785105      -1.31188257      -1.85819829       0.00000000
Si       1.47794283       0.53105400       1.76224641       0.00000000
Si       2.79885006      -1.51071831      -1.42221846       0.00000000
Si      -0.39679182      -2.77380093       2.15194599       0.00000000
Si       1.16440920      -1.28950011       3.19285767       0.00000000
Si       0.48290076       2.46428604       2.67606725       0.00000000
Si      -0.52562943       1.86500952      -3.15952629       0.00000000
Si      -2.68480377       0.45467019       2.57072915       0.00000000
