10
Lattice="16.28999089631971 0.0 0.0 0.0 16.28999089631971 0.0 0.0 0.0 34.25627252547053" Properties=species:S:1:pos:R:3:initial_magmoms:R:1 pbc="T T T"
Si       2.27080971       0.48267270      -0.18693658       0.00000000
Si      -0.31353363      -1.82055411       1.43061125       0.00000000
Si      -0.99504207       1.93323204       0.91382084       0.00000000
Si      -1.47794283      -0.53105400      -1.76224641       0.00000000
Si       2.55518424      -0.24426855      -2.36570525       0.00000000
Si      -1.83319515       1.58094450      -2.63091746       0.00000000
Si      -3.18132297      -1.66539186      -0.67118352       0.00000000
Si      -1.32191721      -1.03757526       3.38291157       0.00000000
Si      -1.87473465      -3.30485493       0.38969957       0.00000000
Si       3.62957490      -1.34705268       0.51942815       0.00000000
