10
Lattice="16.28999089631971 0.0 0.0 0.0 16.28999089631971 0.0 0.0 0.0 34.25627252547053" Properties=species:S:1:pos:R:3:initial_magmoms:R:1 pbc="T T T"
Si       2.32070598      -0.14134833      -0.28812967       0.00000000
Si      -0.42112908      -2.31883263      -0.54261966       0.00000000
Si      -0.73044360       1.39079133      -1.84387916       0.00000000
Si      -0.93934656       0.38866311       2.22134923       0.00000000
Si      -2.88288202      -0.71772111       1.33236421       0.00000000
Si       1.91091474      -0.52924581      -2.63410329       0.00000000
Si      -0.42922521      -0.40321008      -3.29562654       0.00000000
Si       2.88386757       2.03489793       0.47811506       0.00000000
Si      -2.09373741      -2.91007818       1.00144843       0.00000000
Si       1.24105365       3.53633094      -0.29141827       0.00000000
