10
Lattice="16.28999089631971 0.0 0.0 0.0 16.28999089631971 0.0 0.0 0.0 34.25627252547053" Properties=species:S:1:pos:R:3:initial_magmoms:R:1 pbc="T T T"
Si      -2.32070598       0.14134833       0.28812967       0.00000000
Si       0.56316159       2.17624626       0.76624473       0.00000000
Si       0.73251243      -1.86927750       1.27614963       0.00000000
Si      -0.40979124      -0.38789748      -2.34597362       0.00000000
Si      -0.73666638      -3.35870478       0.12311711       0.00000000
Si      -2.74183506      -2.17748430      -0.25448999       0.00000000
Si       0.16944858       1.71567909      -3.20515567       0.00000000
Si      -3.05114958       1.53213966      -1.55574949       0.00000000
Si      -1.07965233       3.67767927      -0.00328860       0.00000000
Si       2.48775993       2.92703607      -0.40062733       0.00000000
