10
Lattice="16.28999089631971 0.0 0.0 0.0 16.28999089631971 0.0 0.0 0.0 34.25627252547053" Properties=species:S:1:pos:R:3:initial_magmoms:R:1 pbc="T T T"
Si       0.57923982       2.10357657      -0.85918205       0.00000000
Si       0.99504207      -1.93323204      -0.91382084       0.00000000
Si       0.40979124       0.38789748       2.34597362       0.00000000
Si      -2.34013995       0.12603573      -0.66152325       0.00000000
Si      -1.91091474       0.52924581       2.63410329       0.00000000
Si      -2.64135834       1.92003714       0.79022414       0.00000000
Si       0.54773496       1.45121094      -3.11047128       0.00000000
Si      -2.33204382      -1.78958682       2.09148363       0.00000000
Si      -0.83815308      -0.35228754      -3.54473829       0.00000000
Si      -0.48290076      -2.46428604      -2.67606725       0.00000000
