10
Lattice="16.28999089631971 0.0 0.0 0.0 16.28999089631971 0.0 0.0 0.0 34.25627252547053" Properties=species:S:1:pos:R:3:initial_magmoms:R:1 pbc="T T T"
Si       1.69389936       1.69300341       0.39127536       0.00000000
Si       0.17980902       0.13800888      -2.48570504       0.00000000
Si      -1.96789716       0.85470372       1.41961498       0.00000000
Si       0.51069150      -2.15819694       1.42197867       0.00000000
Si      -0.48163014       1.98112464       2.89177025       0.00000000
Si      -3.18081798      -1.46495970       0.75237093       0.00000000
Si       2.59133175      -0.03077181      -2.48039531       0.00000000
Si       3.31854993       0.33220197       1.53516145       0.00000000
Si       2.08313262      -1.04394465       2.99154170       0.00000000
Si       0.67114800       3.54121794       1.48405107       0.00000000
