10
Lattice="16.28999089631971 0.0 0.0 0.0 16.28999089631971 0.0 0.0 0.0 34.25627252547053" Properties=species:S:1:pos:R:3:initial_magmoms:R:1 pbc="T T T"
Si      -0.77690268       1.74876408      -1.36881290       0.00000000
Si      -0.76395213      -2.03040189      -0.92204235       0.00000000
Si      -0.98336214       0.53551746       2.14629370       0.00000000
Si       2.42123157       0.01861947      -0.11516965       0.00000000
Si       0.54094203      -3.48158025       0.45547165       0.00000000
Si       0.96488928       1.72335168      -3.00520170       0.00000000
Si       0.40808079       2.38215186       2.92336342       0.00000000
Si       2.96119620       1.78657317      -1.59373971       0.00000000
Si      -3.06537075      -2.22676155      -0.42906005       0.00000000
Si       3.32970858      -0.12232161       2.09617674       0.00000000
