10
Lattice="16.28999089631971 0.0 0.0 0.0 16.28999089631971 0.0 0.0 0.0 34.25627252547053" Properties=species:S:1:pos:R:3:initial_magmoms:R:1 pbc="T T T"
Si       2.17036557       0.67385214       0.52086691       0.00000000
Si      -0.03150486      -0.65236563      -2.25128923       0.00000000
Si      -0.57923982      -2.10357657       0.85918205       0.00000000
Si      -1.59503535       1.45456668       0.91796585       0.00000000
Si       3.28899987      -1.22531751      -0.34708475       0.00000000
Si      -2.91937977      -1.97754084       0.19765880       0.00000000
Si       2.31340806      -0.83675214      -2.55949309       0.00000000
Si      -3.22059816      -0.18353943       1.64940619       0.00000000
Si      -0.16944858      -1.71567909       3.20515567       0.00000000
Si      -1.55580903       3.36473208      -0.56046719       0.00000000
