10
Lattice="16.28999089631971 0.0 0.0 0.0 16.28999089631971 0.0 0.0 0.0 34.25627252547053" Properties=species:S:1:pos:R:3:initial_magmoms:R:1 pbc="T T T"
Si       0.95192407       1.80317268      -1.14011790       0.00000000
Si      -2.04918982      -0.13238883      -1.12644964       0.00000000
Si       1.48604059      -1.80691938      -0.23506667       0.00000000
Si      -0.13275373       0.30253788       2.32833163       0.00000000
Si       2.17763254       0.55952892       2.72570462       0.00000000
Si       3.15905617      -1.02947913       1.24603835       0.00000000
Si      -0.94540856       3.19122729      -1.46568970       0.00000000
Si      -3.58502731      -0.13952385       0.68834592       0.00000000
Si       1.98958078      -1.72913463      -2.53150570       0.00000000
Si       2.19815794       0.71596179      -2.83710608       0.00000000
