10
Lattice="16.28999089631971 0.0 0.0 0.0 16.28999089631971 0.0 0.0 0.0 34.25627252547053" Properties=species:S:1:pos:R:3:initial_magmoms:R:1 pbc="T T T"
Si       1.02025899       1.70986356       1.29139368       0.00000000
Si      -1.07514000      -1.54492731       1.45623496       0.00000000
Si       1.32256881      -1.34612415      -1.49676015       0.00000000
Si      -1.37963268       1.34351775      -1.49586949       0.00000000
Si      -0.60085665       3.41326229       1.54375978       0.00000000
Si       2.63409300      -2.77775451      -0.12404203       0.00000000
Si      -2.65613337       2.77734288      -0.17826974       0.00000000
Si      -2.70627399      -2.73776256       0.07817286       0.00000000
Si       2.68706808       0.00154755      -2.86502495       0.00000000
Si      -0.02454903       2.71459572      -2.86742289       0.00000000
