10
Lattice="16.28999089631971 0.0 0.0 0.0 16.28999089631971 0.0 0.0 0.0 34.25627252547053" Properties=species:S:1:pos:R:3:initial_magmoms:R:1 pbc="T T T"
Si      -1.62111564       1.70339873       0.25236610       0.00000000
Si      -1.02025899      -1.70986356      -1.29139368       0.00000000
Si       1.75275513       1.11722246      -1.16608417       0.00000000
Si      -0.01555695      -0.42068925       3.30261482       0.00000000
Si       1.59622452       1.16656830       2.75454841       0.00000000
Si       0.07835490       2.78347949       1.97432711       0.00000000
Si       0.33001911       2.36250516      -2.77678075       0.00000000
Si      -2.39989167      -0.36634581      -2.78726317       0.00000000
Si      -2.09539899      -3.25479087       0.16484128       0.00000000
Si      -0.99805572       3.57458705      -1.24199611       0.00000000
