10
Lattice="16.28999089631971 0.0 0.0 0.0 16.28999089631971 0.0 0.0 0.0 34.25627252547053" Properties=species:S:1:pos:R:3:initial_magmoms:R:1 pbc="T T T"
Si       0.37245456       2.18263750       0.91806862       0.00000000
Si       2.31321258      -0.30129984      -0.61253675       0.00000000
Si      -0.64031103      -1.95281262       1.32256691       0.00000000
Si      -1.26817650       0.86387499      -2.31832880       0.00000000
Si       1.41354846      -1.86904944       2.59967572       0.00000000
Si       2.14047342       1.68836143       2.34131477       0.00000000
Si      -2.48152086       2.61032167      -1.11202774       0.00000000
Si       3.15534042      -1.89446184       0.96328692       0.00000000
Si      -2.43180378      -1.19531133       2.76013219       0.00000000
Si       0.98606628       0.18919206       3.78967078       0.00000000
