10
Lattice="16.28999089631971 0.0 0.0 0.0 16.28999089631971 0.0 0.0 0.0 34.25627252547053" Properties=species:S:1:pos:R:3:initial_magmoms:R:1 pbc="T T T"
Si       1.23541731       1.37614662      -1.45638024       0.00000000
Si      -1.24103736       1.48942728       1.37493793       0.00000000
Si       1.48475205      -1.23634584       1.38838010       0.00000000
Si      -1.57244112      -1.11425229      -1.56956303       0.00000000
Si      -2.57816943      -2.69751323       0.04190572       0.00000000
Si      -2.59116885       0.12527010       2.75619957       0.00000000
Si       0.12681765      -2.59395444       2.75907709       0.00000000
Si      -2.08313262       1.04394465      -2.99154170       0.00000000
Si      -0.38923326       2.73694806      -2.60026634       0.00000000
Si       2.85475734      -2.57337365      -0.02988861       0.00000000
