10
Lattice="16.28999089631971 0.0 0.0 0.0 16.28999089631971 0.0 0.0 0.0 34.25627252547053" Properties=species:S:1:pos:R:3:initial_magmoms:R:1 pbc="T T T"
Si       1.34485353       1.34120457       1.36638071       0.00000000
Si      -1.35562122       1.35672894      -1.35480208       0.00000000
Si       1.35614250      -1.35698795      -1.35493910       0.00000000
Si      -1.33656192      -1.35911543       1.38744833       0.00000000
Si      -0.06638175       2.67384060       2.70843944       0.00000000
Si      -2.71428867      -0.00026064      -2.71203636       0.00000000
Si       0.00060273      -2.71492877      -2.71183082       0.00000000
Si       2.71482624       0.00029322      -2.71200210       0.00000000
Si       0.00087966       2.71474479      -2.71227615       0.00000000
Si      -2.71138905      -2.71688842       0.00541249       0.00000000
