10
Lattice="16.28999089631971 0.0 0.0 0.0 16.28999089631971 0.0 0.0 0.0 34.25627252547053" Properties=species:S:1:pos:R:3:initial_magmoms:R:1 pbc="T T T"
Si      -1.87541883      -1.54865772       0.31296548       0.00000000
Si      -1.68218685       0.83509056      -1.62337141       0.00000000
Si       0.24575094       0.87904098       2.38584795       0.00000000
Si       1.41403716      -2.00056187      -1.26111112       0.00000000
Si      -0.35754921      -3.16556891       1.09318678       0.00000000
Si      -3.26285442       1.56489885       0.07690537       0.00000000
Si       1.44270756       2.89245240      -1.82613440       0.00000000
Si      -3.28106664      -0.39364785       1.75611454       0.00000000
Si      -0.35357445       2.06332398      -3.11715126       0.00000000
Si       2.36946195      -0.59657238      -2.96930111       0.00000000
