10
Lattice="16.28999089631971 0.0 0.0 0.0 16.28999089631971 0.0 0.0 0.0 34.25627252547053" Properties=species:S:1:pos:R:3:initial_magmoms:R:1 pbc="T T T"
Si       0.16179880       0.70635069       2.20744118       0.00000000
Si       0.68959968       1.86028542      -1.29129091       0.00000000
Si       1.47797867      -1.78374848      -0.50569138       0.00000000
Si      -2.31111510      -0.53737452       0.10848968       0.00000000
Si      -2.65095708      -0.78188742      -2.15033594       0.00000000
Si      -3.19579242       1.50881238       0.86003846       0.00000000
Si       0.04827216      -1.32309661       3.41333116       0.00000000
Si       2.99998595       2.11727646      -0.89391793       0.00000000
Si       1.34305511      -2.15597498      -2.86026333       0.00000000
Si      -1.88267181       1.84160079       2.78424862       0.00000000
