10
Lattice="16.28999089631971 0.0 0.0 0.0 16.28999089631971 0.0 0.0 0.0 34.25627252547053" Properties=species:S:1:pos:R:3:initial_magmoms:R:1 pbc="T T T"
Si       0.07424982      -2.29841541       0.47434687       0.00000000
Si       1.53376866       0.70821590      -1.65855262       0.00000000
Si      -2.27625057       0.03566207      -0.85154290       0.00000000
Si       1.36392912       0.81050080       1.88255451       0.00000000
Si      -0.53647857      -2.05861032       2.69775148       0.00000000
Si       2.33261397      -2.61577719       0.46297378       0.00000000
Si       0.22718034       2.34767896      -2.71943571       0.00000000
Si       3.20623038      -0.67687623       1.49580098       0.00000000
Si      -0.03679911       0.12729169       3.62445268       0.00000000
Si      -3.12708379      -1.98326907       0.04484149       0.00000000
