10
Lattice="16.28999089631971 0.0 0.0 0.0 16.28999089631971 0.0 0.0 0.0 34.25627252547053" Properties=species:S:1:pos:R:3:initial_magmoms:R:1 pbc="T T T"
Si       1.35651717      -1.35694071       1.35730279       0.00000000
Si      -1.35694071      -1.35601218      -1.35815920       0.00000000
Si      -1.35742941       1.35751086       1.35702874       0.00000000
Si       1.35689184       1.35886293      -1.35743981       0.00000000
Si      -2.71393029      -0.00050499       2.71450281       0.00000000
Si      -0.00216657      -2.71422188       2.71436578       0.00000000
Si      -0.00104256       2.71433754       2.71429727       0.00000000
Si       2.71355562       0.00014661       2.71549624       0.00000000
Si      -2.71516833      -2.71456397      -0.00027405       0.00000000
Si       2.71484253      -2.71498425       0.00003426       0.00000000
