10
Lattice="16.28999089631971 0.0 0.0 0.0 16.28999089631971 0.0 0.0 0.0 34.25627252547053" Properties=species:S:1:pos:R:3:initial_magmoms:R:1 pbc="T T T"
Si      -2.18242017      -0.08198757       0.90162560       0.00000000
Si       1.13798682      -1.64610450       1.26179625       0.00000000
Si       1.47885507       1.82307906       0.41354195       0.00000000
Si      -0.24575094      -0.87904098      -2.38584795       0.00000000
Si       3.55939758       0.77185278      -0.11373089       0.00000000
Si      -0.02868669      -1.56618576       3.30408784       0.00000000
Si      -3.52681758      -1.27268883      -0.62973341       0.00000000
Si       3.37805730      -0.97125867       1.51286061       0.00000000
Si      -2.12116977      -2.42769870      -2.07288247       0.00000000
Si       1.68651999       2.05913745       2.77609562       0.00000000
