10
Lattice="16.28999089631971 0.0 0.0 0.0 16.28999089631971 0.0 0.0 0.0 34.25627252547053" Properties=species:S:1:pos:R:3:initial_magmoms:R:1 pbc="T T T"
Si      -1.23541731      -1.37614662       1.45638024       0.00000000
Si      -1.62465057       1.36080144      -1.14388609       0.00000000
Si       1.47909942       1.36739889       1.37850542       0.00000000
Si       0.60339789      -1.31457042      -2.09295665       0.00000000
Si       1.94961978       1.90638612      -2.04835496       0.00000000
Si      -0.21709683       1.82350260      -3.13986318       0.00000000
Si      -3.31854993      -0.33220197      -1.53516145       0.00000000
Si      -2.80785843      -2.49039891      -0.11318279       0.00000000
Si      -2.47645467       0.11328066       2.83131817       0.00000000
Si       0.24933474      -2.61249246       2.84476034       0.00000000
