10
Lattice="16.28999089631971 0.0 0.0 0.0 16.28999089631971 0.0 0.0 0.0 34.25627252547053" Properties=species:S:1:pos:R:3:initial_magmoms:R:1 pbc="T T T"
Si      -0.20271276       0.91878858       2.18421541       0.00000000
Si      -1.82767121      -1.13080945      -1.03399191       0.00000000
Si       1.84148676      -1.49983170      -0.47701886       0.00000000
Si       0.28709496       1.93834710      -1.60035118       0.00000000
Si       2.07342378       1.23483087       1.62429633       0.00000000
Si      -1.71414457       0.89863785      -2.23988189       0.00000000
Si       3.33829341      -0.68777032       1.08911028       0.00000000
Si      -0.90949839      -3.19413410      -1.76433605       0.00000000
Si      -0.77951560      -0.91437888       3.72491409       0.00000000
Si       3.24221499      -0.81662259      -2.21891704       0.00000000
