10
Lattice="16.28999089631971 0.0 0.0 0.0 16.28999089631971 0.0 0.0 0.0 34.25627252547053" Properties=species:S:1:pos:R:3:initial_magmoms:R:1 pbc="T T T"
Si      -1.95926346      -1.14911289      -0.38308811       0.00000000
Si       1.84327866       0.10907784      -1.41656617       0.00000000
Si       0.32304699      -0.01718595       2.31867136       0.00000000
Si      -0.03881907       2.35454031      -0.13979993       0.00000000
Si      -1.39512447      -3.09415518       0.81183986       0.00000000
Si       2.08031445       2.45035809      -1.36076267       0.00000000
Si      -3.40645077       0.12605202       0.93557358       0.00000000
Si      -1.99862010       0.53067933       2.88794241       0.00000000
Si       3.51140724      -0.95905746      -0.06549803       0.00000000
Si       1.46111526       1.92891519       2.92576136       0.00000000
