10
Lattice="16.28999089631971 0.0 0.0 0.0 16.28999089631971 0.0 0.0 0.0 34.25627252547053" Properties=species:S:1:pos:R:3:initial_magmoms:R:1 pbc="T T T"
Si       0.53996463       1.76795370      -1.47857006       0.00000000
Si       0.90847701      -0.14094108       2.21134640       0.00000000
Si       0.79197093      -1.91231568      -1.23161645       0.00000000
Si      -2.42123157      -0.01861947       0.11516965       0.00000000
Si      -1.45634229       1.70473221      -2.89003205       0.00000000
Si       2.77060320       1.06763031      -2.17390427       0.00000000
Si       0.46462338      -3.68458623       0.26243745       0.00000000
Si      -3.19813425       1.73014461      -1.25364325       0.00000000
Si      -3.18518370      -2.04902136      -0.80687269       0.00000000
Si       0.22732695       1.77934041       3.44782724       0.00000000
