10
Lattice="16.28999089631971 0.0 0.0 0.0 16.28999089631971 0.0 0.0 0.0 34.25627252547053" Properties=species:S:1:pos:R:3:initial_magmoms:R:1 pbc="T T T"
Si       0.28913121       1.77064155       1.48905249       0.00000000
Si      -1.83317886       0.98186346      -1.06300699       0.00000000
Si       1.87603785      -0.09826128      -1.47757663       0.00000000
Si      -0.66678228      -1.79675442       1.49477329       0.00000000
Si       2.09000700       0.63759060       2.59066631       0.00000000
Si       1.49993433      -1.71387090       2.58628151       0.00000000
Si      -3.75777720       0.23107365       0.10386508       0.00000000
Si       3.72896019      -0.64482336      -0.01616897       0.00000000
Si       2.23347303       2.10849615      -2.37382399       0.00000000
Si      -1.98112464       0.44435862      -3.34666841       0.00000000
