10
Lattice="16.28999089631971 0.0 0.0 0.0 16.28999089631971 0.0 0.0 0.0 34.25627252547053" Properties=species:S:1:pos:R:3:initial_magmoms:R:1 pbc="T T T"
Si      -2.17036557      -0.67385214      -0.52086691       0.00000000
Si       0.14794578       0.53750484       2.28366143       0.00000000
Si       1.11863430      -1.89916965      -0.86795166       0.00000000
Si       0.58689612       2.03304087      -1.13145106       0.00000000
Si       0.14304249      -1.51060428      -3.08036000       0.00000000
Si       0.07874586       2.91353166       2.23162612       0.00000000
Si      -2.20187043      -1.32621777      -2.77215615       0.00000000
Si      -3.76540092       0.78071454       0.39709893       0.00000000
Si      -1.77665256      -0.21328497       3.45053349       0.00000000
Si       3.39157800      -1.90535985      -0.08255766       0.00000000
