10
Lattice="16.28999089631971 0.0 0.0 0.0 16.28999089631971 0.0 0.0 0.0 34.25627252547053" Properties=species:S:1:pos:R:3:initial_magmoms:R:1 pbc="T T T"
Si       1.33753932       1.34963778      -1.36002959       0.00000000
Si      -1.35513252      -1.35477414      -1.34786861       0.00000000
Si      -1.35702216       1.35250664       1.35408270       0.00000000
Si       1.35853713      -1.36107837       1.35439100       0.00000000
Si       2.60921817      -0.11743461      -2.63768650       0.00000000
Si      -0.02375082      -2.74815558      -2.65797650       0.00000000
Si      -2.71122615       2.71032110      -0.00376819       0.00000000
Si       0.00117288       2.71148257       2.71097441       0.00000000
Si      -2.71409319      -0.00316026       2.71097441       0.00000000
Si       2.71573848      -0.00327429       2.71100867       0.00000000
