10
Lattice="16.28999089631971 0.0 0.0 0.0 16.28999089631971 0.0 0.0 0.0 34.25627252547053" Properties=species:S:1:pos:R:3:initial_magmoms:R:1 pbc="T T T"
Si      -0.13471830       1.98635603       1.36802501       0.00000000
Si       0.17293464      -1.23820290       2.08740713       0.00000000
Si      -2.36208258       0.13680342      -0.66539421       0.00000000
Si       0.84494601      -0.90129312      -2.21905406       0.00000000
Si       2.32758036       0.93308405      -0.67145757       0.00000000
Si      -0.44391879      -2.83242375      -1.93534345       0.00000000
Si       2.43411696      -0.76424535       2.50187401       0.00000000
Si      -2.67455736      -2.13210036      -1.24000925       0.00000000
Si      -3.41985744       1.43642192       1.08921305       0.00000000
Si      -1.38717495      -0.27743499       3.60150097       0.00000000
