10
Lattice="16.28999089631971 0.0 0.0 0.0 16.28999089631971 0.0 0.0 0.0 34.25627252547053" Properties=species:S:1:pos:R:3:initial_magmoms:R:1 pbc="T T T"
Si      -0.70832178       2.17160591      -0.60321904       0.00000000
Si       1.56010959      -0.96076791      -1.51409384       0.00000000
Si       0.74481138       0.58572324       2.18914832       0.00000000
Si      -1.60002009      -1.84327866       0.08488709       0.00000000
Si       1.25245665       2.26379102      -2.23347596       0.00000000
Si      -2.01984597       2.38028733       1.54667157       0.00000000
Si       0.15900669      -1.42429986       3.26106194       0.00000000
Si      -2.03268249       1.71385691      -2.51228792       0.00000000
Si       1.36827855      -3.28904874      -0.92927042       0.00000000
Si       1.38717495       0.27743499      -3.60150097       0.00000000
