10
Lattice="16.28999089631971 0.0 0.0 0.0 16.28999089631971 0.0 0.0 0.0 34.25627252547053" Properties=species:S:1:pos:R:3:initial_magmoms:R:1 pbc="T T T"
Si       0.06134814       0.84976133       2.20860589       0.00000000
Si       0.76916804       1.98051376      -1.12888184       0.00000000
Si       1.78201753      -1.63022079       0.02048526       0.00000000
Si      -2.01163581      -0.81397776      -1.06944717       0.00000000
Si      -0.65656845      -2.08497243      -2.48779467       0.00000000
Si       2.06430368       0.65910317      -2.51167131       0.00000000
Si       0.66737232      -3.53830107      -0.92296727       0.00000000
Si       3.48660476      -0.64223667      -1.16570735       0.00000000
Si      -0.16568559       3.31917709       1.78129291       0.00000000
Si      -1.61600058      -0.51584566       3.40510965       0.00000000
