10
Lattice="16.28999089631971 0.0 0.0 0.0 16.28999089631971 0.0 0.0 0.0 34.25627252547053" Properties=species:S:1:pos:R:3:initial_magmoms:R:1 pbc="T T T"
Si      -0.33984198      -0.24451290      -2.25882562       0.00000000
Si      -0.88467732       2.04618690       0.75154878       0.00000000
Si      -0.50842719      -1.98251648       1.18225314       0.00000000
Si       2.31111510       0.53737452      -0.10848968       0.00000000
Si       2.47291389       1.24372521       2.09895150       0.00000000
Si       0.42844329       2.37897531       2.67575894       0.00000000
Si      -0.45155880       1.95559821      -3.03976630       0.00000000
Si      -0.47183985       3.46056615      -1.12994378       0.00000000
Si      -3.18656835       1.38398211      -1.29146220       0.00000000
Si       0.64772298      -3.65287679       0.02586350       0.00000000
