10
Lattice="16.28999089631971 0.0 0.0 0.0 16.28999089631971 0.0 0.0 0.0 34.25627252547053" Properties=species:S:1:pos:R:3:initial_magmoms:R:1 pbc="T T T"
Si      -2.26755171      -0.39361527       0.32307109       0.00000000
Si       0.88467732      -2.04618690      -0.75154878       0.00000000
Si       1.31312061       0.33278841       1.92421016       0.00000000
Si       0.41283747       1.41437925      -1.88149256       0.00000000
Si      -2.30189103      -0.66220479      -2.04301098       0.00000000
Si       3.19579242      -1.50881238      -0.86003846       0.00000000
Si       3.35759121      -0.80246169       1.34740272       0.00000000
Si       0.43311852      -0.09058869      -3.79131508       0.00000000
Si       0.14962365      -1.18276803       3.63068733       0.00000000
Si       0.54483534      -2.29069980      -3.01037440       0.00000000
