10
Lattice="16.28999089631971 0.0 0.0 0.0 16.28999089631971 0.0 0.0 0.0 34.25627252547053" Properties=species:S:1:pos:R:3:initial_magmoms:R:1 pbc="T T T"
Si       0.54327150      -0.48436686       2.36601355       0.00000000
Si      -2.19168918       1.19909061       0.27072747       0.00000000
Si       1.16349696       1.51555644      -1.70647717       0.00000000
Si       0.88462845      -2.47589429      -0.94290443       0.00000000
Si      -2.76943032      -1.16914959      -0.21756171       0.00000000
Si      -1.32483312      -2.99583593       0.63514590       0.00000000
Si       3.09444093      -1.64914096      -1.07739463       0.00000000
Si      -0.14962365       1.18276803      -3.63068733       0.00000000
Si       1.05573861       3.66696045      -0.77083508       0.00000000
Si       3.20796756       0.38030634      -2.28328461       0.00000000
