10
Lattice="16.28999089631971 0.0 0.0 0.0 16.28999089631971 0.0 0.0 0.0 34.25627252547053" Properties=species:S:1:pos:R:3:initial_magmoms:R:1 pbc="T T T"
Si       0.08387721       0.02650383       2.31856859       0.00000000
Si       1.71232335      -1.48719555      -0.53480923       0.00000000
Si      -2.15111079      -0.96593184      -0.33773278       0.00000000
Si       0.67487841       2.22039216      -0.68779782       0.00000000
Si       1.24779771      -3.11513670       1.10825955       0.00000000
Si       1.05127515      -1.92006972      -2.79387464       0.00000000
Si       1.94410091       1.29311649       2.88163926       0.00000000
Si      -1.83083310       1.27211868       2.99924110       0.00000000
Si       1.75285287       3.06714636       1.29636085       0.00000000
Si      -2.33245107      -2.70904329       1.28885872       0.00000000
