10
Lattice="16.28999089631971 0.0 0.0 0.0 16.28999089631971 0.0 0.0 0.0 34.25627252547053" Properties=species:S:1:pos:R:3:initial_magmoms:R:1 pbc="T T T"
Si       1.86022370       1.26661266       0.56307067       0.00000000
Si      -0.08387721      -0.02650383      -2.31856859       0.00000000
Si       0.75644244      -2.05700346       0.90231072       0.00000000
Si      -1.91471031       1.24561485       0.68067252       0.00000000
Si      -0.77939505      -2.06413848       2.71710629       0.00000000
Si       1.16392050      -3.14164053      -1.21030904       0.00000000
Si       1.36624230       1.74643461       2.83207040       0.00000000
Si      -2.23498800      -0.99243567      -2.65630137       0.00000000
Si       1.66897566       3.04064253      -1.02220774       0.00000000
Si       1.62844614      -1.51369938      -2.85337781       0.00000000
