10
Lattice="16.28999089631971 0.0 0.0 0.0 16.28999089631971 0.0 0.0 0.0 34.25627252547053" Properties=species:S:1:pos:R:3:initial_magmoms:R:1 pbc="T T T"
Si       1.23812145      -1.39561317      -1.37347518       0.00000000
Si      -1.37881818       1.32916626      -1.31824034       0.00000000
Si      -1.35167904      -1.35602847       1.33593371       0.00000000
Si       1.35917244       1.35927018       1.33846868       0.00000000
Si       0.42736815       2.14516494      -2.58804331       0.00000000
Si      -0.71746047      -2.13517917      -2.66524466       0.00000000
Si       2.29069980       0.13774824      -2.75332345       0.00000000
Si      -2.49732216      -0.29646171      -2.64644309       0.00000000
Si      -2.71161711       0.00039096       2.69261989       0.00000000
Si       0.00268785      -2.71230129       2.69330501       0.00000000
