10
Lattice="16.28999089631971 0.0 0.0 0.0 16.28999089631971 0.0 0.0 0.0 34.25627252547053" Properties=species:S:1:pos:R:3:initial_magmoms:R:1 pbc="T T T"
Si      -1.84327866      -0.10907784       1.41656617       0.00000000
Si       0.23703579       2.34128025       0.05580350       0.00000000
Si       1.66812858      -1.06813530       1.35106814       0.00000000
Si      -0.39542346      -0.36777933      -2.40581936       0.00000000
Si      -1.88209773       2.24546247       1.27676625       0.00000000
Si       1.19001708      -2.15888112      -2.27797488       0.00000000
Si       3.73907858      -0.40241187       0.07323995       0.00000000
Si       2.01565944       2.90271510       1.44952073       0.00000000
Si       0.09861966       1.59523083      -3.64003930       0.00000000
Si       0.99325017      -3.28852746       2.03886597       0.00000000
