10
Lattice="16.28999089631971 0.0 0.0 0.0 16.28999089631971 0.0 0.0 0.0 34.25627252547053" Properties=species:S:1:pos:R:3:initial_magmoms:R:1 pbc="T T T"
Si      -1.07874009      -0.87232950       1.87450428       0.00000000
Si       2.28534039      -0.64249389       0.26764441       0.00000000
Si      -0.11280825       2.39397840      -0.30481248       0.00000000
Si      -0.99561222      -1.14331365      -1.88375348       0.00000000
Si       1.63159011       2.61356760       1.49771933       0.00000000
Si       0.11942199      -2.94809904       2.06250281       0.00000000
Si       2.77932179      -1.12231584      -2.00135533       0.00000000
Si       0.91909809      -2.38892850      -2.56442599       0.00000000
Si      -3.35168379      -0.86613930       1.08911028       0.00000000
Si      -1.67826096       0.74683134      -3.18662302       0.00000000
