10
Lattice="16.28999089631971 0.0 0.0 0.0 16.28999089631971 0.0 0.0 0.0 34.25627252547053" Properties=species:S:1:pos:R:3:initial_magmoms:R:1 pbc="T T T"
Si      -0.08703747      -1.71771534       1.45972910       0.00000000
Si      -0.86188761       2.01153807       0.83958745       0.00000000
Si       1.44479498      -0.53530569      -1.76728209       0.00000000
Si      -1.83143583      -1.93730454      -0.34280271       0.00000000
Si      -3.12306993       1.53758052       0.42512058       0.00000000
Si       3.02014061      -1.77200991      -0.47280534       0.00000000
Si      -3.31490097      -0.79070031       1.00994399       0.00000000
Si       1.72980645      -3.10427127       1.01381495       0.00000000
Si      -0.02355534      -1.53679860      -3.36677686       0.00000000
Si      -0.47964276       1.89716598       3.18031986       0.00000000
