10
Lattice="16.28999089631971 0.0 0.0 0.0 16.28999089631971 0.0 0.0 0.0 34.25627252547053" Properties=species:S:1:pos:R:3:initial_magmoms:R:1 pbc="T T T"
Si      -1.53026631      -1.37448504      -1.06883056       0.00000000
Si       2.02499361      -0.96080049      -0.64240824       0.00000000
Si       0.52300674      -0.48247722       2.24080681       0.00000000
Si      -0.19543113       2.09751669      -1.09267294       0.00000000
Si       2.10598749       2.29387635      -1.58565523       0.00000000
Si       3.41088165       0.84269799      -0.20814123       0.00000000
Si       1.85461650      -1.20778947      -2.93326349       0.00000000
Si      -3.42759894       0.01356957      -1.39440235       0.00000000
Si      -0.28403244      -2.46169593      -2.76581873       0.00000000
Si      -0.30455784      -2.61812880       2.79699196       0.00000000
