10
Lattice="16.28999089631971 0.0 0.0 0.0 16.28999089631971 0.0 0.0 0.0 34.25627252547053" Properties=species:S:1:pos:R:3:initial_magmoms:R:1 pbc="T T T"
Si      -1.35874564      -1.35647753       1.35637787       0.00000000
Si       1.35690813      -1.35730832      -1.35781663       0.00000000
Si       1.35562122       1.35984643       1.35819345       0.00000000
Si      -1.35840518       1.35817670      -1.35809068       0.00000000
Si       0.00024435       2.71532918       2.71244743       0.00000000
Si      -0.00089595      -2.71229423       2.71556475       0.00000000
Si       2.71396287      -2.71446080      -0.00047959       0.00000000
Si       2.71443528       2.71490564      -0.00027405       0.00000000
Si      -0.00141723       2.71591562      -2.71392045       0.00000000
Si      -0.00112401      -2.71527530      -2.71491388       0.00000000
