10
Lattice="16.28999089631971 0.0 0.0 0.0 16.28999089631971 0.0 0.0 0.0 34.25627252547053" Properties=species:S:1:pos:R:3:initial_magmoms:R:1 pbc="T T T"
Si      -1.18394427       1.51182603       1.34352148       0.00000000
Si       1.51388834      -1.23883821       1.31312930       0.00000000
Si       1.91551829       0.83725713      -1.10851681       0.00000000
Si      -1.62119450      -1.07165394      -1.40042259       0.00000000
Si       0.93762959       0.26539668      -3.16972580       0.00000000
Si      -2.55272186       0.14986800       2.69136953       0.00000000
Si       0.16700345      -2.56451841       2.69058164       0.00000000
Si      -2.67377285      -2.60501535      -0.02057433       0.00000000
Si      -3.48452615       0.93576276      -1.23514245       0.00000000
Si      -2.65774349       2.75048505       0.05495052       0.00000000
