10
Lattice="16.28999089631971 0.0 0.0 0.0 16.28999089631971 0.0 0.0 0.0 34.25627252547053" Properties=species:S:1:pos:R:3:initial_magmoms:R:1 pbc="T T T"
Si       1.35681968       1.35786924       1.35730279       0.00000000
Si      -1.35764233       1.35790182      -1.35658341       0.00000000
Si      -1.35760975      -1.35826020       1.35730279       0.00000000
Si       1.35882009      -1.35799956      -1.35747407       0.00000000
Si       0.00059046      -2.71130760       2.71662670       0.00000000
Si       2.71455534       0.00013032      -2.71433153       0.00000000
Si      -0.00064425       2.71404432      -2.71487963       0.00000000
Si       2.71478340      -2.71453302      -0.00023979       0.00000000
Si      -2.71489255      -2.71446786      -0.00030831       0.00000000
Si      -2.71463191       2.71516833       0.00003426       0.00000000
