10
Lattice="16.28999089631971 0.0 0.0 0.0 16.28999089631971 0.0 0.0 0.0 34.25627252547053" Properties=species:S:1:pos:R:3:initial_magmoms:R:1 pbc="T T T"
Si      -1.35625192       1.35646830       1.35915263       0.00000000
Si      -1.35681968      -1.35786924      -1.35730279       0.00000000
Si       1.35859903       1.35749457      -1.35706299       0.00000000
Si       1.36081447      -1.35920502       1.36329764       0.00000000
Si      -2.71446201       0.00003258      -2.71388619       0.00000000
Si       0.00050010       2.71469592      -2.71450281       0.00000000
Si       2.71560490      -0.00060273      -2.71450281       0.00000000
Si      -2.71498329       2.71541268      -0.00037682       0.00000000
Si      -2.71442943      -2.71612944       0.00000000       0.00000000
Si       2.71645198       2.71410948      -0.00119897       0.00000000
