10
Lattice="16.28999089631971 0.0 0.0 0.0 16.28999089631971 0.0 0.0 0.0 34.25627252547053" Properties=species:S:1:pos:R:3:initial_magmoms:R:1 pbc="T T T"
Si      -1.34377715      -1.34408790       1.37196448       0.00000000
Si       1.35625192      -1.35646830      -1.35915263       0.00000000
Si      -1.35873137       1.35894438      -1.35952945       0.00000000
Si       1.35905543       1.34257293       1.39316913       0.00000000
Si      -2.71089911       2.71430496      -0.00246645       0.00000000
Si      -0.00056776      -2.71433754      -2.71645542       0.00000000
Si       2.71485095       0.00102627      -2.71621562       0.00000000
Si      -2.71519967       0.00083079      -2.71642116       0.00000000
Si      -2.71774091      -2.71406061       0.00099343       0.00000000
Si      -0.00073181       2.71564074      -2.71642116       0.00000000
