10
Lattice="16.28999089631971 0.0 0.0 0.0 16.28999089631971 0.0 0.0 0.0 34.25627252547053" Properties=species:S:1:pos:R:3:initial_magmoms:R:1 pbc="T T T"
Si      -1.29033416      -1.33226136       1.48662029       0.00000000
Si      -1.57534563       1.23670422      -1.29447675       0.00000000
Si       1.27272141      -1.59764175      -1.26481080       0.00000000
Si       1.09092501       1.88082711       1.11418589       0.00000000
Si      -3.02014061       1.77200991       0.47280534       0.00000000
Si      -3.10717808       0.05429457       1.93253444       0.00000000
Si      -0.28416276       3.05162199      -2.04410718       0.00000000
Si       0.19311795      -1.61059230      -3.41309136       0.00000000
Si       3.35473002       1.16463726       1.31054295       0.00000000
Si       1.46815254      -3.69515844      -0.17213787       0.00000000
