10
Lattice="16.28999089631971 0.0 0.0 0.0 16.28999089631971 0.0 0.0 0.0 34.25627252547053" Properties=species:S:1:pos:R:3:initial_magmoms:R:1 pbc="T T T"
Si      -1.81684392       1.38655593       0.44591415       0.00000000
Si       0.79911735      -0.31649841       2.16862880       0.00000000
Si      -1.16309364      -1.86950556      -0.78416077       0.00000000
Si       1.29033416       1.33226136      -1.48662029       0.00000000
Si      -1.10054004      -3.31416792       1.16855062       0.00000000
Si      -1.72980645       3.10427127      -1.01381495       0.00000000
Si       2.98027505      -1.05137289       2.03379604       0.00000000
Si       2.56305557      -0.26538039      -2.75143109       0.00000000
Si      -0.28501147       2.56896558      -2.78109704       0.00000000
Si      -3.44843403      -1.22701167      -1.05180518       0.00000000
