10
Lattice="16.28999089631971 0.0 0.0 0.0 16.28999089631971 0.0 0.0 0.0 34.25627252547053" Properties=species:S:1:pos:R:3:initial_magmoms:R:1 pbc="T T T"
Si       0.45263394       1.88820648       1.29964945       0.00000000
Si      -1.81084527       0.45781416      -1.42293784       0.00000000
Si      -0.64444869      -1.08199809       2.04760132       0.00000000
Si       2.14946550      -0.22447620      -1.06191079       0.00000000
Si      -1.38240198       1.42980588       2.59525666       0.00000000
Si       0.17796825      -2.37001581      -2.61437167       0.00000000
Si       2.36649717       1.11304683       2.42383817       0.00000000
Si      -2.00318945      -1.63514133      -2.47953890       0.00000000
Si      -0.03093471      -3.37214403       1.45085672       0.00000000
Si       3.36751767       1.69445322      -0.40819797       0.00000000
