10
Lattice="16.28999089631971 0.0 0.0 0.0 16.28999089631971 0.0 0.0 0.0 34.25627252547053" Properties=species:S:1:pos:R:3:initial_magmoms:R:1 pbc="T T T"
Si       2.18115770      -0.73487448      -0.13483276       0.00000000
Si      -0.79911735       0.31649841      -2.16862880       0.00000000
Si       0.19234417       2.09295549       1.05660106       0.00000000
Si      -1.09768373      -1.83607848       1.01545925       0.00000000
Si      -2.61596127       1.70305434      -1.72271465       0.00000000
Si       2.00318945       1.63514133       2.47953890       0.00000000
Si      -1.89965739      -2.99766951      -1.00007818       0.00000000
Si      -3.00778464      -0.96666489       2.06712741       0.00000000
Si      -1.96221099      -1.55300715      -2.95278957       0.00000000
Si       2.48237608      -2.52887589      -1.58658015       0.00000000
