10
Lattice="16.28999089631971 0.0 0.0 0.0 16.28999089631971 0.0 0.0 0.0 34.25627252547053" Properties=species:S:1:pos:R:3:initial_magmoms:R:1 pbc="T T T"
Si       1.35874564       1.35647753      -1.35637787       0.00000000
Si      -1.35729324      -1.35850455      -1.35672043       0.00000000
Si       1.35784969      -1.35581670       1.35918688       0.00000000
Si      -1.35783081       1.35526001       1.36107098       0.00000000
Si       0.02219512       2.71884240       2.70398613       0.00000000
Si      -2.69867700      -0.02523321       2.72786276       0.00000000
Si      -2.71387557       2.71379250       0.00061661       0.00000000
Si      -2.71480410      -0.00086337      -2.71385194       0.00000000
Si       0.00034046       2.71465424      -2.71446855       0.00000000
Si       2.71565377      -0.00083079      -2.71419450       0.00000000
