10
Lattice="16.28999089631971 0.0 0.0 0.0 16.28999089631971 0.0 0.0 0.0 34.25627252547053" Properties=species:S:1:pos:R:3:initial_magmoms:R:1 pbc="T T T"
Si       1.70458723       0.98798412      -1.18619261       0.00000000
Si      -1.11464520      -1.90808028      -0.94345253       0.00000000
Si      -1.78201753       1.63022079      -0.02048526       0.00000000
Si       1.78403356       0.66499038       1.88029359       0.00000000
Si       0.28228615       2.28932397      -2.53215657       0.00000000
Si      -2.43858598      -0.45475164      -2.50827993       0.00000000
Si      -1.72066939       2.47998213       2.18812063       0.00000000
Si       2.98108792      -0.44584101      -2.50379236       0.00000000
Si      -1.01284948       3.61073456      -1.14936710       0.00000000
Si       0.57068920       2.41143706       3.08659465       0.00000000
