10
Lattice="10.86 0.0 0.0 0.0 10.86 0.0 0.0 0.0 10.86" Properties=species:S:1:pos:R:3:initial_magmoms:R:1 pbc="T T T"
Si       1.16137926      -1.16026068      -1.51889046       0.00000000
Si      -1.55362074      -1.16026068       1.19610954       0.00000000
Si       1.16137926       1.55473932       1.19610954       0.00000000
Si       2.51887926      -2.51776068      -0.16139046       0.00000000
Si      -0.19612074      -2.51776068       2.55360954       0.00000000
Si       2.51887926       0.19723932       2.55360954       0.00000000
Si      -2.82084156      -2.45553288      -0.06693018       0.00000000
Si       2.51887926       0.19723932      -2.87639046       0.00000000
Si       2.51887926       2.91223932      -0.16139046       0.00000000
Si      -2.91112074       0.19723932       2.55360954       0.00000000
