10
Lattice="10.86 0.0 0.0 0.0 10.86 0.0 0.0 0.0 10.86" Properties=species:S:1:pos:R:3:initial_magmoms:R:1 pbc="T T T"
Si      -1.39943046      -1.42717776       1.24723842       0.00000000
Si      -1.39943046       1.28782224      -1.46776158       0.00000000
Si       1.31556954      -1.42717776      -1.46776158       0.00000000
Si       1.58261694       0.65372856       1.85403006       0.00000000
Si       0.02494542       2.28977670       2.45275272       0.00000000
Si       2.60669322       2.30558886       0.14000712       0.00000000
Si       2.97173040      -1.03226472       1.97945220       0.00000000
Si       2.79227976      -2.48968758      -0.01983036       0.00000000
Si      -2.75693046      -0.06967776       2.60473842       0.00000000
Si      -2.75693046       2.64532224      -0.11026158       0.00000000
