10
Lattice="10.86 0.0 0.0 0.0 10.86 0.0 0.0 0.0 10.86" Properties=species:S:1:pos:R:3:initial_magmoms:R:1 pbc="T T T"
Si       1.23550962       1.27666902       1.39641138       0.00000000
Si       1.23550962      -1.43833098      -1.31858862       0.00000000
Si      -1.47949038       1.27666902      -1.31858862       0.00000000
Si      -0.58713504      -2.41541604       2.34149202       0.00000000
Si      -2.53832952      -1.04341794       2.12862516       0.00000000
Si      -2.71778016      -2.50084080       0.12934260       0.00000000
Si       2.59300962       2.63416902       0.03891138       0.00000000
Si      -2.90336670       2.29443564       0.28918008       0.00000000
Si       2.59300962      -0.08083098      -2.67608862       0.00000000
Si      -0.12199038       2.63416902      -2.67608862       0.00000000
