10
Lattice="10.86 0.0 0.0 0.0 10.86 0.0 0.0 0.0 10.86" Properties=species:S:1:pos:R:3:initial_magmoms:R:1 pbc="T T T"
Si      -1.47671022       1.06250982      -1.44793122       0.00000000
Si       0.17945064       1.45742286       1.99928256       0.00000000
Si       1.23828978      -1.65249018      -1.44793122       0.00000000
Si      -1.47671022      -1.65249018       1.26706878       0.00000000
Si       2.13064512       0.08542476       2.21214942       0.00000000
Si       2.71778016       2.50084080      -0.12934260       0.00000000
Si      -0.11921022       2.42000982      -2.80543122       0.00000000
Si      -2.79227976       2.48968758       0.01983036       0.00000000
Si      -2.03406714      -0.37324734       3.16119396       0.00000000
Si       2.59578978      -0.29499018      -2.80543122       0.00000000
