10
Lattice="16.28999089631971 0.0 0.0 0.0 16.28999089631971 0.0 0.0 0.0 34.26581377546328" Properties=species:S:1:pos:R:3:initial_magmoms:R:1 pbc="T T T"
Si      -1.35534426       1.35661799      -1.35836615       0.00000000
Si       1.36052684      -1.35838974      -1.35713258       0.00000000
Si      -1.34760651      -1.38231975       1.35716684       0.00000000
Si       1.38748679       1.35318243       1.35888014       0.00000000
Si      -2.60996748      -0.00157935       2.74702329       0.00000000
Si      -2.71277367      -0.00256345      -2.71457355       0.00000000
Si      -2.71438638       2.71304231      -0.00205595       0.00000000
Si       0.00263585       2.71309118      -2.71464208       0.00000000
Si       2.71377461      -2.71490691       0.00486575       0.00000000
Si      -2.71062339      -2.71878393      -0.00161049       0.00000000
