10
Lattice="16.28999089631971 0.0 0.0 0.0 16.28999089631971 0.0 0.0 0.0 34.26581377546328" Properties=species:S:1:pos:R:3:initial_magmoms:R:1 pbc="T T T"
Si       1.80981900       0.85983507       1.25402467       0.00000000
Si      -0.77339381      -1.84559184       1.28021747       0.00000000
Si      -1.42066067       1.93948740      -0.10115274       0.00000000
Si       2.97193131       0.90766251      -0.90742779       0.00000000
Si      -1.99262251      -0.29393676       2.69195266       0.00000000
Si       1.50174252       1.15287588      -2.79472133       0.00000000
Si      -0.27798885       2.68943732      -2.20706230       0.00000000
Si      -1.58997405      -0.78020955      -3.18113713       0.00000000
Si      -3.30523190       1.02820851       1.17256793       0.00000000
Si       0.74156967       2.44048635       2.69938149       0.00000000
