10
Lattice="16.28999089631971 0.0 0.0 0.0 16.28999089631971 0.0 0.0 0.0 34.26581377546328" Properties=species:S:1:pos:R:3:initial_magmoms:R:1 pbc="T T T"
Si      -1.27379818       1.43647175       1.30905762       0.00000000
Si       1.33171239       1.35894764      -1.36367735       0.00000000
Si      -1.38748679      -1.35318243      -1.35888014       0.00000000
Si       1.39069848      -1.32049982       1.47027836       0.00000000
Si      -1.96688948      -0.57307568       2.40501602       0.00000000
Si      -0.30180483      -2.32549917       2.79592064       0.00000000
Si       2.67224907       2.71175069      -0.01771544       0.00000000
Si       2.68671459       0.00523398      -2.71645817       0.00000000
Si       2.70443811      -2.71668723       0.03008540       0.00000000
Si       2.30904723       0.35784569       3.04417660       0.00000000
