10
Lattice="16.28999089631971 0.0 0.0 0.0 16.28999089631971 0.0 0.0 0.0 34.26581377546328" Properties=species:S:1:pos:R:3:initial_magmoms:R:1 pbc="T T T"
Si      -0.88615971       0.58259556       2.10488158       0.00000000
Si       1.81097559       1.46821770      -0.40409697       0.00000000
Si       1.20288618      -2.04654202       0.14631511       0.00000000
Si      -1.81695402       0.48576780      -1.50468126       0.00000000
Si       3.29401719      -1.26390852       0.83570940       0.00000000
Si       1.74975777       1.71756873      -2.77392197       0.00000000
Si      -3.58494030      -0.83733858      -0.68500827       0.00000000
Si      -2.72824920       1.99451502       1.66782089       0.00000000
Si      -2.99356443       2.39559111      -0.70974820       0.00000000
Si       0.98165169      -3.33035220      -1.78439325       0.00000000
