10
Lattice="16.28999089631971 0.0 0.0 0.0 16.28999089631971 0.0 0.0 0.0 34.26581377546328" Properties=species:S:1:pos:R:3:initial_magmoms:R:1 pbc="T T T"
Si       1.16015751       1.69111377      -1.14620856       0.00000000
Si      -1.32310638       1.36663326       1.43211307       0.00000000
Si       1.40432832      -1.34659656       1.39395807       0.00000000
Si      -1.13669991      -1.42938234      -1.59971895       0.00000000
Si      -0.65961468       3.30827094      -1.39549459       0.00000000
Si      -2.53143342      -2.68431507      -0.09957308       0.00000000
Si      -2.55489102       2.75929794       0.00937856       0.00000000
Si      -2.68035660       0.02753010       2.78950950       0.00000000
Si       0.03956841      -2.69099397       2.78776194       0.00000000
Si       0.03935664       2.73958704       2.78930391       0.00000000
