10
Lattice="16.28999089631971 0.0 0.0 0.0 16.28999089631971 0.0 0.0 0.0 34.26581377546328" Properties=species:S:1:pos:R:3:initial_magmoms:R:1 pbc="T T T"
Si      -2.09135907       0.94929975      -0.44494184       0.00000000
Si       1.05653682       2.02650858       0.53598616       0.00000000
Si       0.32822721      -1.80923256       1.48223713       0.00000000
Si       0.82795554      -1.13151969      -1.94681330       0.00000000
Si       2.96539902      -1.65019329      -1.12830535       0.00000000
Si       2.62309725      -2.12247297       1.19176567       0.00000000
Si      -0.70941321      -3.53121588       0.28073997       0.00000000
Si      -1.95292665       1.98881352      -2.52230796       0.00000000
Si      -0.54278280       3.27943764       1.78117226       0.00000000
Si      -3.71054109      -0.73472787      -0.32531982       0.00000000
