10
Lattice="16.28999089631971 0.0 0.0 0.0 16.28999089631971 0.0 0.0 0.0 34.26581377546328" Properties=species:S:1:pos:R:3:initial_magmoms:R:1 pbc="T T T"
Si       0.22377573      -2.10686715      -1.03496522       0.00000000
Si      -0.75636099       0.08087985       2.26973451       0.00000000
Si      -1.56778218       1.13674878      -1.45989581       0.00000000
Si       2.35660914       0.64984068       0.26388118       0.00000000
Si       0.94350051       1.23843096       3.30850323       0.00000000
Si      -0.68163876       0.37968732      -3.60305233       0.00000000
Si      -1.52537931       3.40091217      -0.73555037       0.00000000
Si       2.33199495       2.97784458       0.41656973       0.00000000
Si       2.84539059       0.05062932       2.52761917       0.00000000
Si      -0.91854423      -2.18176857       2.99017364       0.00000000
