10
Lattice="16.28999089631971 0.0 0.0 0.0 16.28999089631971 0.0 0.0 0.0 34.26581377546328" Properties=species:S:1:pos:R:3:initial_magmoms:R:1 pbc="T T T"
Si       1.62113193       1.06319943       1.25889518       0.00000000
Si       1.09724553      -0.23206734      -2.06427867       0.00000000
Si      -1.16015751      -1.69111377       1.14620856       0.00000000
Si      -1.81977219       1.61715717      -0.24928603       0.00000000
Si      -2.29746015       0.24221601      -2.27240934       0.00000000
Si      -0.60261597      -1.38961845      -3.10304739       0.00000000
Si       0.23042205       2.41082226       2.57863688       0.00000000
Si      -2.48326389      -0.32448051       2.57832163       0.00000000
Si       2.74657545       2.67318900       0.03275916       0.00000000
Si       1.80046854       1.96372692      -2.76792755       0.00000000
