10
Lattice="16.28999089631971 0.0 0.0 0.0 16.28999089631971 0.0 0.0 0.0 34.26581377546328" Properties=species:S:1:pos:R:3:initial_magmoms:R:1 pbc="T T T"
Si       1.35122292       1.36234899      -1.35687559       0.00000000
Si       1.35503478      -1.35677781       1.35915426       0.00000000
Si      -1.36096434       1.35646830       1.35877734       0.00000000
Si      -1.36246302      -1.37295378      -1.35719083       0.00000000
Si      -2.59424766       0.01971090      -2.77992535       0.00000000
Si       2.74193280       0.01472616      -2.67661729       0.00000000
Si       2.71033020       2.71606428      -0.00109651       0.00000000
Si       2.71287144       0.00009774       2.71683510       0.00000000
Si      -0.00159642       2.71437012       2.71601272       0.00000000
Si      -2.71585251       2.71518462       0.00301539       0.00000000
