10
Lattice="16.28999089631971 0.0 0.0 0.0 16.28999089631971 0.0 0.0 0.0 34.26581377546328" Properties=species:S:1:pos:R:3:initial_magmoms:R:1 pbc="T T T"
Si      -1.37091753      -1.34627076       1.34411156       0.00000000
Si      -1.35910728       1.35622395      -1.35829762       0.00000000
Si       1.35734796      -1.35930276      -1.35983958       0.00000000
Si       1.35969372       1.35602847       1.38875994       0.00000000
Si      -0.00343719      -2.68698663       2.69415111       0.00000000
Si      -2.73883770      -0.01501938       2.66673845       0.00000000
Si       2.71362078       2.71332756       0.00140490       0.00000000
Si       2.71368594      -0.00094482      -2.71666377       0.00000000
Si      -0.00118917       2.71438641      -2.71635537       0.00000000
Si      -0.00066789      -2.71577106      -2.71649244       0.00000000
