10
Lattice="16.28999089631971 0.0 0.0 0.0 16.28999089631971 0.0 0.0 0.0 34.26581377546328" Properties=species:S:1:pos:R:3:initial_magmoms:R:1 pbc="T T T"
Si       1.35392706       1.35729909      -1.38735504       0.00000000
Si      -1.35969372      -1.35602847      -1.38875994       0.00000000
Si      -1.27215126       1.37365425       1.53137434       0.00000000
Si       1.41219639      -1.40432832       1.42765166       0.00000000
Si      -2.70614367      -0.13359429       2.63764676       0.00000000
Si      -2.70124038       2.71168227      -0.00157623       0.00000000
Si       2.70539433       2.71901277      -0.00829233       0.00000000
Si       2.71075374      -2.72025081      -0.02491126       0.00000000
Si      -2.73061125      -2.70229923      -0.04464838       0.00000000
Si       2.71213839       0.00079821      -2.74921631       0.00000000
