10
Lattice="16.28999089631971 0.0 0.0 0.0 16.28999089631971 0.0 0.0 0.0 34.26581377546328" Properties=species:S:1:pos:R:3:initial_magmoms:R:1 pbc="T T T"
Si      -0.97378362       2.04413436      -0.64755571       0.00000000
Si       2.17106604       0.28465146       0.99758119       0.00000000
Si      -0.99567738      -0.87254127       2.02661842       0.00000000
Si      -0.27521955      -0.81114426      -2.38168098       0.00000000
Si      -3.15335304       1.30984632      -1.25841271       0.00000000
Si       3.14949231       2.10720924      -0.07870862       0.00000000
Si       1.96463916      -0.65028051      -3.22177641       0.00000000
Si      -2.05221420      -2.89904985       1.49063226       0.00000000
Si       0.56330820      -1.00196532       3.83845860       0.00000000
Si      -0.62685549       2.64460005      -2.95409172       0.00000000
