10
Lattice="16.28999089631971 0.0 0.0 0.0 16.28999089631971 0.0 0.0 0.0 34.26581377546328" Properties=species:S:1:pos:R:3:initial_magmoms:R:1 pbc="T T T"
Si      -1.35775521       1.35744573       1.35983958       0.00000000
Si       1.36047564       1.33997323      -1.37447109       0.00000000
Si       1.35772263      -1.35881406       1.36004517       0.00000000
Si      -1.36736631      -1.36811565      -1.39290953       0.00000000
Si      -2.71331127       2.71164059       0.00171329       0.00000000
Si       2.71184517      -2.71450044       0.00027413       0.00000000
Si      -2.71433754      -2.71538010       0.00438603       0.00000000
Si       0.00030951       2.71441477       2.71721202       0.00000000
Si       2.71862181       2.71346670       0.00256994       0.00000000
Si       2.71505430       0.00022806       2.71731482       0.00000000
