10
Lattice="16.28999089631971 0.0 0.0 0.0 16.28999089631971 0.0 0.0 0.0 34.26581377546328" Properties=species:S:1:pos:R:3:initial_magmoms:R:1 pbc="T T T"
Si       0.67240233      -1.33644789      -1.79590657       0.00000000
Si      -0.63710190      -1.07593821       1.99636169       0.00000000
Si       2.26424484       0.76833414      -0.16769699       0.00000000
Si      -1.72783143       1.65736089      -0.42009911       0.00000000
Si       1.77246603       1.42537500      -2.33812911       0.00000000
Si       2.29138398       2.56656510       1.31933737       0.00000000
Si      -2.89601176       1.57060035       1.66991110       0.00000000
Si      -1.44873486       0.66802032       3.34828586       0.00000000
Si      -1.19558826      -2.38216815      -2.61400333       0.00000000
Si      -2.11238946      -2.83571433       1.40613272       0.00000000
