10
Lattice="16.28999089631971 0.0 0.0 0.0 16.28999089631971 0.0 0.0 0.0 34.26581377546328" Properties=species:S:1:pos:R:3:initial_magmoms:R:1 pbc="T T T"
Si       1.73771946      -0.69263451      -1.46907905       0.00000000
Si       0.57606327      -0.65055744       2.22104276       0.00000000
Si      -1.88260272      -1.40230836      -0.51515253       0.00000000
Si      -0.53980173       2.40357321      -0.05770366       0.00000000
Si       3.73695858       0.24369840      -0.71156429       0.00000000
Si       1.21775895       0.19292247      -3.63234962       0.00000000
Si      -2.70251100       2.62036053       0.91616557       0.00000000
Si      -2.70624141      -2.35105425       1.54915831       0.00000000
Si      -1.36409202      -1.54365669       3.32385433       0.00000000
Si      -3.65884803      -0.25140357      -1.53442400       0.00000000
