10
Lattice="16.28999089631971 0.0 0.0 0.0 16.28999089631971 0.0 0.0 0.0 34.26581377546328" Properties=species:S:1:pos:R:3:initial_magmoms:R:1 pbc="T T T"
Si       1.35738054      -1.35658284      -1.35778363       0.00000000
Si      -1.35782037      -1.35800007       1.35685845       0.00000000
Si      -1.35736425       1.35760387      -1.35788643       0.00000000
Si       1.35801585       1.35783356       1.35768083       0.00000000
Si       2.71472850       2.71502840       0.00003427       0.00000000
Si      -2.71521720      -2.71479417       0.00013706       0.00000000
Si       2.71570590       0.00104825      -2.71453928       0.00000000
Si       2.71533123      -2.71533174      -0.00017133       0.00000000
Si       0.00004887      -2.71562496      -2.71505327       0.00000000
Si      -2.71542897       0.00063483      -2.71525887       0.00000000
