10
Lattice="16.28999089631971 0.0 0.0 0.0 16.28999089631971 0.0 0.0 0.0 34.26581377546328" Properties=species:S:1:pos:R:3:initial_magmoms:R:1 pbc="T T T"
Si      -1.27176030       1.44207225      -1.39732640       0.00000000
Si       1.47633012      -1.27091811      -1.40322012       0.00000000
Si      -0.49948398      -1.82797258       1.49440151       0.00000000
Si       1.42472340       1.66604346       1.50413300       0.00000000
Si      -2.45718360      -2.57743263       0.18112919       0.00000000
Si      -2.61228069       0.08180838      -2.77320239       0.00000000
Si       0.10981089      -2.63944331      -2.77426463       0.00000000
Si      -0.49933737      -0.91566090       3.70094982       0.00000000
Si      -2.65432518       2.88313452       0.08525339       0.00000000
Si       0.10906155       2.79366984      -2.76943315       0.00000000
