10
Lattice="16.28999089631971 0.0 0.0 0.0 16.28999089631971 0.0 0.0 0.0 34.26581377546328" Properties=species:S:1:pos:R:3:initial_magmoms:R:1 pbc="T T T"
Si       0.00014661       0.91231168       2.20654831       0.00000000
Si       0.49948398       1.82797258      -1.49440151       0.00000000
Si      -1.95769962      -0.74946006      -1.31327231       0.00000000
Si       1.82162925      -1.93150597      -0.10917094       0.00000000
Si       1.97581410       0.55705447      -2.89762163       0.00000000
Si      -0.75670308      -2.16266107      -2.88902091       0.00000000
Si       3.42476073      -0.80806612      -1.52424705       0.00000000
Si      -3.06726039      -2.30000206       0.21169432       0.00000000
Si       0.68212746      -3.50782411      -1.53675408       0.00000000
Si       1.32234075      -0.51685564       3.64961960       0.00000000
