10
Lattice="16.28999089631971 0.0 0.0 0.0 16.28999089631971 0.0 0.0 0.0 34.26581377546328" Properties=species:S:1:pos:R:3:initial_magmoms:R:1 pbc="T T T"
Si       0.99670365      -0.90341082      -1.93502585       0.00000000
Si       0.59859234      -1.44177318       1.77216035       0.00000000
Si      -2.19740697       0.85207777      -0.24267063       0.00000000
Si       0.50832945       2.11759900       0.93446353       0.00000000
Si      -0.32549049       0.52575649      -3.37809714       0.00000000
Si       0.64285227       1.61914129       3.25566532       0.00000000
Si       3.35694546      -0.78059888      -1.32958285       0.00000000
Si      -2.00702574       2.06376055      -2.36588443       0.00000000
Si      -0.21989871      -0.50100709       3.72397646       0.00000000
Si       2.27154276       3.10400737      -0.19288237       0.00000000
