10
Lattice="16.28999089631971 0.0 0.0 0.0 16.28999089631971 0.0 0.0 0.0 34.26581377546328" Properties=species:S:1:pos:R:3:initial_magmoms:R:1 pbc="T T T"
Si      -1.65346825      -1.52405006       0.49801962       0.00000000
Si       1.03598536       0.16560479       2.10351095       0.00000000
Si      -1.31056375       1.83586736      -0.73722940       0.00000000
Si       1.26196024      -0.98872808      -1.77712889       0.00000000
Si       2.81571673      -1.37095664       1.51585192       0.00000000
Si      -0.27599984      -3.30404207       1.12943612       0.00000000
Si       3.15594967       0.38726771      -1.88465508       0.00000000
Si       1.99028614       2.32077179       2.09155218       0.00000000
Si       1.61848318       3.45893780      -0.06496802       0.00000000
Si      -0.06906797      -1.24470914      -3.64866016       0.00000000
