10
Lattice="16.28999089631971 0.0 0.0 0.0 16.28999089631971 0.0 0.0 0.0 34.26581377546328" Properties=species:S:1:pos:R:3:initial_magmoms:R:1 pbc="T T T"
Si      -0.76002624      -1.66866615      -1.50265957       0.00000000
Si       2.18137761      -0.83049678       0.46317126       0.00000000
Si      -1.72183671       1.80841806      -0.18441871       0.00000000
Si       1.88638200       0.99334791      -1.37765781       0.00000000
Si      -0.07486884       0.52672086       3.14101184       0.00000000
Si       2.42165511      -0.07648155       2.60314106       0.00000000
Si      -2.07286992      -0.39480444      -3.00638138       0.00000000
Si      -2.64165156      -2.57785992      -0.21995238       0.00000000
Si       0.64347129       2.30829300      -2.99915129       0.00000000
Si      -3.43041336       0.98552871      -1.66884886       0.00000000
