10
Lattice="16.28999089631971 0.0 0.0 0.0 16.28999089631971 0.0 0.0 0.0 34.26581377546328" Properties=species:S:1:pos:R:3:initial_magmoms:R:1 pbc="T T T"
Si      -2.23985871      -0.16086375       0.84009543       0.00000000
Si       0.74629377      -2.24362170       0.57045759       0.00000000
Si       0.98743464       2.13802992       0.79407641       0.00000000
Si       2.49652395      -0.60320241      -0.53787078       0.00000000
Si       0.07486884      -0.52672086      -3.14101184       0.00000000
Si      -2.85488766       1.32457248      -1.07241777       0.00000000
Si       2.25624645      -1.35721764      -2.67784058       0.00000000
Si      -1.96463916       0.65028051       3.22177641       0.00000000
Si      -1.64696787       1.28169720      -3.32543055       0.00000000
Si      -0.39604248       3.92743755      -0.05441414       0.00000000
