10
Lattice="16.28999089631971 0.0 0.0 0.0 16.28999089631971 0.0 0.0 0.0 34.26581377546328" Properties=species:S:1:pos:R:3:initial_magmoms:R:1 pbc="T T T"
Si      -0.93279798       2.09852178      -0.35804369       0.00000000
Si      -1.89398943      -1.37599579       0.10752618       0.00000000
Si       1.35330804      -1.00609876      -1.64589075       0.00000000
Si       0.98218926      -0.23896453       2.16381882       0.00000000
Si       1.27782018      -3.06570862      -0.46467896       0.00000000
Si      -3.15594967      -0.38726771       1.88465508       0.00000000
Si      -1.00484865      -3.56716369      -0.03152457       0.00000000
Si       0.83518830       3.42162816      -1.17771668       0.00000000
Si      -0.34023294      -1.75822435       3.40050699       0.00000000
Si      -1.53746649       3.07167009       1.81968706       0.00000000
