10
Lattice="16.28999089631971 0.0 0.0 0.0 16.28999089631971 0.0 0.0 0.0 34.26581377546328" Properties=species:S:1:pos:R:3:initial_magmoms:R:1 pbc="T T T"
Si       1.35865116      -1.35702216       1.36415707       0.00000000
Si      -1.35812988       1.36021500       1.36357456       0.00000000
Si      -1.34082990      -1.37450133      -1.37203136       0.00000000
Si       1.37257911       1.35570267      -1.38233853       0.00000000
Si      -2.68656309       0.01624113      -2.67182007       0.00000000
Si       2.71459818      -2.71217097       0.00788114       0.00000000
Si      -2.71326240      -2.71625976       0.00020559       0.00000000
Si       0.00004887      -2.71363707       2.72111832       0.00000000
Si      -2.71816569       2.71757925       0.00370071       0.00000000
Si       2.71775844       2.71842633       0.00661331       0.00000000
