10
Lattice="16.28999089631971 0.0 0.0 0.0 16.28999089631971 0.0 0.0 0.0 34.26581377546328" Properties=species:S:1:pos:R:3:initial_magmoms:R:1 pbc="T T T"
Si       0.93840174       1.75156596      -1.32238702       0.00000000
Si      -1.17801135       1.37456649       1.56498912       0.00000000
Si      -1.79362674      -1.02661209      -1.23870986       0.00000000
Si       1.70079003      -1.84331124       0.41691239       0.00000000
Si       2.22418773       0.38312451      -2.70453366       0.00000000
Si      -0.49506939      -2.34253458      -2.69127278       0.00000000
Si       3.37489704      -0.95289984      -1.16099495       0.00000000
Si      -1.60945200      -0.19666917       3.39447621       0.00000000
Si       1.85609889      -1.39157325       3.09499283       0.00000000
Si       0.74784132      -3.65747967      -1.06977930       0.00000000
