10
Lattice="16.28999089631971 0.0 0.0 0.0 16.28999089631971 0.0 0.0 0.0 34.26581377546328" Properties=species:S:1:pos:R:3:initial_magmoms:R:1 pbc="T T T"
Si      -1.03598536      -0.16560479      -2.10351095       0.00000000
Si       0.95430078       2.15516700      -0.01195878       0.00000000
Si       1.77973137      -1.53656144      -0.58765903       0.00000000
Si      -1.14267182      -0.74994992       2.10590956       0.00000000
Si       0.27798885      -2.68943732       2.20706230       0.00000000
Si      -2.68945361      -1.68965486      -1.60549134       0.00000000
Si       3.10215357      -0.01730161      -1.82434721       0.00000000
Si       0.81580320       2.67902082       2.27096880       0.00000000
Si      -0.36736231       1.05307031       3.51908875       0.00000000
Si       3.25280349       1.79449011      -0.29232182       0.00000000
