10
Lattice="16.28999089631971 0.0 0.0 0.0 16.28999089631971 0.0 0.0 0.0 34.26581377546328" Properties=species:S:1:pos:R:3:initial_magmoms:R:1 pbc="T T T"
Si      -0.65345706      -0.58021722      -2.25402092       0.00000000
Si      -2.07032868      -0.74386656       1.07828134       0.00000000
Si       0.51720750       1.45163448      -1.92719341       0.00000000
Si       1.76252913      -1.73747511       0.06344901       0.00000000
Si       0.70161030       2.10898485       1.15655136       0.00000000
Si       1.98208575       0.72171216       2.60077740       0.00000000
Si      -0.75362427      -1.99984185       2.60932673       0.00000000
Si       0.63708561      -3.34746468       1.28958503       0.00000000
Si       3.40566885      -0.56604492       1.18122961       0.00000000
Si       0.81642222      -2.44693719      -2.73723770       0.00000000
