10
Lattice="16.28999089631971 0.0 0.0 0.0 16.28999089631971 0.0 0.0 0.0 34.26581377546328" Properties=species:S:1:pos:R:3:initial_magmoms:R:1 pbc="T T T"
Si      -1.35146727      -1.36171368      -1.37906271       0.00000000
Si       1.36599795       1.35119034      -1.37964523       0.00000000
Si       1.43883054      -1.34516304       1.35226683       0.00000000
Si      -1.20099654       1.41320101       1.57574859       0.00000000
Si       0.75670308       2.16266107       2.88902091       0.00000000
Si       2.57833233       0.23115510       2.77984996       0.00000000
Si      -2.70539433      -2.71901277       0.00829233       0.00000000
Si      -2.70835911       2.71731928       0.02045670       0.00000000
Si       2.72461653      -2.71360449      -0.02987981       0.00000000
Si      -2.70888039      -0.00386073      -2.74010160       0.00000000
