10
Lattice="16.28999089631971 0.0 0.0 0.0 16.28999089631971 0.0 0.0 0.0 34.26581377546328" Properties=species:S:1:pos:R:3:initial_magmoms:R:1 pbc="T T T"
Si      -0.72941733       1.62585833      -1.57376117       0.00000000
Si      -2.13513030      -0.82595187       0.68230127       0.00000000
Si       0.77173875      -1.88612136      -1.27170786       0.00000000
Si       1.45005435       0.78262047       1.81557516       0.00000000
Si       2.94511797      -1.11995379      -1.45252866       0.00000000
Si       0.08907372       0.68509224      -3.52557728       0.00000000
Si      -3.63007989       1.00999517       0.60016606       0.00000000
Si       0.49155075      -3.83673483       0.03361478       0.00000000
Si       2.40937245       0.64513287      -2.97502815       0.00000000
Si       0.08837325       1.20665799       3.70955054       0.00000000
