10
Lattice="16.28999089631971 0.0 0.0 0.0 16.28999089631971 0.0 0.0 0.0 34.26581377546328" Properties=species:S:1:pos:R:3:initial_magmoms:R:1 pbc="T T T"
Si       1.35731538      -1.35672224      -1.35699552       0.00000000
Si      -1.35809730      -1.35794399       1.35610460       0.00000000
Si       1.35742941       1.35918144       1.35620740       0.00000000
Si      -1.35829278       1.35820404      -1.35716684       0.00000000
Si       2.71277367       0.00256345       2.71457355       0.00000000
Si      -0.00161271       2.71560575       2.71251760       0.00000000
Si      -2.71401174       0.00157674      -2.71467635       0.00000000
Si       2.71341965      -0.00003802      -2.71560153       0.00000000
Si       0.00215028      -2.71622048       2.71296306       0.00000000
Si      -2.71438641      -2.71480325      -0.00030839       0.00000000
