10
Lattice="16.28999089631971 0.0 0.0 0.0 16.28999089631971 0.0 0.0 0.0 34.26581377546328" Properties=species:S:1:pos:R:3:initial_magmoms:R:1 pbc="T T T"
Si       1.34452773       1.34950107      -1.37570466       0.00000000
Si      -1.36651923      -1.36852520      -1.37104451       0.00000000
Si      -1.47633012       1.27091811       1.40322012       0.00000000
Si       1.44894663      -1.36512059       1.37337458       0.00000000
Si      -1.97581410      -0.55705447       2.89762163       0.00000000
Si      -0.15418485      -2.48856044       2.78845069       0.00000000
Si       2.69943219       2.69393106      -0.01802383       0.00000000
Si       2.70356985      -0.00692325      -2.73201486       0.00000000
Si      -0.00956223       2.70603453      -2.73163793       0.00000000
Si      -2.73251718      -2.71971554       0.00860072       0.00000000
