10
Lattice="16.28999089631971 0.0 0.0 0.0 16.28999089631971 0.0 0.0 0.0 34.26581377546328" Properties=species:S:1:pos:R:3:initial_magmoms:R:1 pbc="T T T"
Si      -0.06312375      -0.93891976      -2.07520737       0.00000000
Si      -1.46150622       1.71214416       0.72688111       0.00000000
Si       2.15479952       1.08338274      -0.08737787       0.00000000
Si      -0.61698375      -2.21596847       0.92843274       0.00000000
Si       0.62996755       1.07062767      -3.17116577       0.00000000
Si      -1.83586671      -1.30658343       2.68722942       0.00000000
Si      -1.33014366       1.03361679       3.09208023       0.00000000
Si       1.59880716      -3.04429868       0.82546392       0.00000000
Si       1.60196090      -2.69134325      -1.68430275       0.00000000
Si       1.49561163       2.76814341      -1.76201766       0.00000000
