10
Lattice="16.28999089631971 0.0 0.0 0.0 16.28999089631971 0.0 0.0 0.0 34.26581377546328" Properties=species:S:1:pos:R:3:initial_magmoms:R:1 pbc="T T T"
Si       0.06312375       0.93891976       2.07520737       0.00000000
Si       0.69309130       2.00954743      -1.09595840       0.00000000
Si      -2.03056479      -0.78168609      -1.01687286       0.00000000
Si       1.66508465      -1.75242348       0.39090462       0.00000000
Si       1.96688948       0.57307568      -2.40501602       0.00000000
Si      -0.55386000      -1.27704870       3.00364012       0.00000000
Si      -0.76820382      -2.16242649      -2.40672931       0.00000000
Si       3.35758796      -0.74742413      -0.93473766       0.00000000
Si       2.21792327       2.02230250       1.98782950       0.00000000
Si       0.47138373      -3.50840403      -0.85877030       0.00000000
