10
Lattice="16.28999089631971 0.0 0.0 0.0 16.28999089631971 0.0 0.0 0.0 34.26581377546328" Properties=species:S:1:pos:R:3:initial_magmoms:R:1 pbc="T T T"
Si       1.01659604      -2.00039312       0.63127944       0.00000000
Si       1.63633443       1.66043318       0.27806723       0.00000000
Si      -1.58618988       0.56300846       1.66723837       0.00000000
Si      -0.96218514       0.63769648      -2.08305425       0.00000000
Si      -1.92277386       2.77191617       0.93727333       0.00000000
Si       2.28744899       1.81683347      -1.98659593       0.00000000
Si       0.27816804       3.55471583       0.49558674       0.00000000
Si      -1.83938535      -2.89285706      -1.11483887       0.00000000
Si      -0.85915089      -3.38571101       1.01361760       0.00000000
Si      -2.38228218       2.39134919      -1.35912000       0.00000000
