10
Lattice="16.28999089631971 0.0 0.0 0.0 16.28999089631971 0.0 0.0 0.0 34.26581377546328" Properties=species:S:1:pos:R:3:initial_magmoms:R:1 pbc="T T T"
Si       0.33658398      -2.20890771       0.72996504       0.00000000
Si      -0.45950832      -0.38056698      -2.29639333       0.00000000
Si       2.20094190       0.78279966      -0.44168659       0.00000000
Si      -1.32266655       1.20614418       1.58119686       0.00000000
Si      -0.20382048       1.82959506      -2.95570222       0.00000000
Si       1.92277386      -2.77191617      -0.93727333       0.00000000
Si       1.69787412      -1.69173279       2.60543687       0.00000000
Si      -3.46454091       0.31012902       1.16870476       0.00000000
Si       1.96530705       2.19877533      -2.28186461       0.00000000
Si       2.45888902       0.60872472       2.77518981       0.00000000
