10
Lattice="16.28999089631971 0.0 0.0 0.0 16.28999089631971 0.0 0.0 0.0 34.26581377546328" Properties=species:S:1:pos:R:3:initial_magmoms:R:1 pbc="T T T"
Si      -1.32686937       1.27571877       1.49280814       0.00000000
Si      -1.54008918      -1.18363140      -1.36806136       0.00000000
Si       0.93454101       1.68995718      -1.44025947       0.00000000
Si       1.37924459      -1.43314533       1.46134526       0.00000000
Si      -3.35210733       0.53934561      -1.30590314       0.00000000
Si      -2.60970687       2.54264094      -0.00185721       0.00000000
Si       2.62538178       2.60933220       0.03947424       0.00000000
Si      -2.57502546      -2.68025560       0.07255447       0.00000000
Si      -0.86027490       3.49550820      -1.24645192       0.00000000
Si       0.03057633       2.63678085       2.84973513       0.00000000
