10
Lattice="16.28999089631971 0.0 0.0 0.0 16.28999089631971 0.0 0.0 0.0 34.26581377546328" Properties=species:S:1:pos:R:3:initial_magmoms:R:1 pbc="T T T"
Si       1.35342207       1.35563751      -1.35785216       0.00000000
Si      -1.35594702       1.35514881       1.35627593       0.00000000
Si       1.35728252      -1.35734796       1.35545355       0.00000000
Si      -1.35744570      -1.36106208      -1.35692698       0.00000000
Si       2.59480545      -0.02744865      -2.81026089       0.00000000
Si       2.71750336       2.70811476      -0.00342658       0.00000000
Si       0.00065160       2.71309950       2.71313439       0.00000000
Si      -2.71459818       2.71217097      -0.00788114       0.00000000
Si      -2.71454931      -0.00146610       2.71323718       0.00000000
Si       2.71509732      -0.00122175       2.71347704       0.00000000
