10
Lattice="16.28999089631971 0.0 0.0 0.0 16.28999089631971 0.0 0.0 0.0 34.26581377546328" Properties=species:S:1:pos:R:3:initial_magmoms:R:1 pbc="T T T"
Si      -1.35638685      -1.35786924      -1.35668712       0.00000000
Si       1.35744570      -1.35725022       1.35699552       0.00000000
Si       1.35860229       1.35661491      -1.35696125       0.00000000
Si      -1.35780408       1.35806472       1.35778363       0.00000000
Si      -0.00228060      -2.71353933      -2.71289452       0.00000000
Si       2.71454931       0.00146610      -2.71323718       0.00000000
Si       2.71458189      -2.71430496       0.00013706       0.00000000
Si       2.71440270       0.00061902       2.71495047       0.00000000
Si       2.71520091       2.71456560      -0.00010280       0.00000000
Si       0.00117288       2.71564074       2.71416236       0.00000000
