10
Lattice="16.28999089631971 0.0 0.0 0.0 16.28999089631971 0.0 0.0 0.0 34.26581377546328" Properties=species:S:1:pos:R:3:initial_magmoms:R:1 pbc="T T T"
Si       1.35781699       1.35687555      -1.35802349       0.00000000
Si       1.35769005      -1.35754344       1.35750950       0.00000000
Si      -1.35695700      -1.35786924      -1.35795496       0.00000000
Si      -1.36143675       1.36054080       1.35932559       0.00000000
Si      -2.71322982       2.71502172      -0.00078811       0.00000000
Si       0.00079821       2.71394658      -2.71505327       0.00000000
Si      -2.71277370      -2.71647153      -0.00082238       0.00000000
Si      -2.71440270      -0.00061902      -2.71495047       0.00000000
Si       0.00017919      -2.71492398      -2.71481341       0.00000000
Si       2.71524393      -0.00037467      -2.71471061       0.00000000
