10
Lattice="16.28999089631971 0.0 0.0 0.0 16.28999089631971 0.0 0.0 0.0 34.26581377546328" Properties=species:S:1:pos:R:3:initial_magmoms:R:1 pbc="T T T"
Si      -1.89653556      -0.58826448       1.34301506       0.00000000
Si       1.07957088       1.71036855       1.33208425       0.00000000
Si      -1.31859731       1.64410083      -1.48213434       0.00000000
Si       1.72845045      -1.44024777      -1.56910102       0.00000000
Si       0.55214955      -2.10841470       2.28522266       0.00000000
Si       3.32925246       1.08519093       0.81672613       0.00000000
Si      -2.56048370       0.11157021      -2.79263112       0.00000000
Si      -3.43607318       1.23836580       1.27513444       0.00000000
Si       0.10704159      -2.59159239      -2.88155095       0.00000000
Si       0.57515103       3.93033717       0.53567777       0.00000000
