10
Lattice="16.28999089631971 0.0 0.0 0.0 16.28999089631971 0.0 0.0 0.0 34.26581377546328" Properties=species:S:1:pos:R:3:initial_magmoms:R:1 pbc="T T T"
Si      -1.12645350      -1.53052695      -1.36278644       0.00000000
Si       1.52772507      -1.41494940       1.16260545       0.00000000
Si       1.68163299       1.14697890      -1.35356893       0.00000000
Si      -0.96645312       1.56959037       1.62070537       0.00000000
Si      -2.42344701       2.75025699      -0.09659538       0.00000000
Si      -2.27716281      -0.19450260      -2.90632515       0.00000000
Si      -2.80056051      -2.42093835       0.21512090       0.00000000
Si       2.80352107       0.14822271       2.53690521       0.00000000
Si       0.44204544       2.49295644      -2.90152793       0.00000000
Si      -3.56294880       1.17393885      -1.52417851       0.00000000
