10
Lattice="16.28999089631971 0.0 0.0 0.0 16.28999089631971 0.0 0.0 0.0 34.26581377546328" Properties=species:S:1:pos:R:3:initial_magmoms:R:1 pbc="T T T"
Si      -2.02601988       1.08458820      -0.19199146       0.00000000
Si      -0.32058720      -0.59631174       2.25448621       0.00000000
Si       1.51630482       1.85170059       0.08542472       0.00000000
Si       0.27691112      -2.03662467      -1.30542544       0.00000000
Si       2.29992713      -2.55461409      -0.17835366       0.00000000
Si      -3.37207887      -0.84004272      -0.31723308       0.00000000
Si       2.96358173       0.94912056       1.76379948       0.00000000
Si      -0.67269555      -2.86583454       2.08973609       0.00000000
Si      -2.35173843      -2.83261923       0.49469583       0.00000000
Si       1.66021394      -0.08796600       3.38330555       0.00000000
