10
Lattice="16.28999089631971 0.0 0.0 0.0 16.28999089631971 0.0 0.0 0.0 34.26581377546328" Properties=species:S:1:pos:R:3:initial_magmoms:R:1 pbc="T T T"
Si      -1.21888296       0.90938503       1.75879667       0.00000000
Si       2.21579091      -0.82833021      -0.10296883       0.00000000
Si       0.61698375       2.21596847      -0.92843274       0.00000000
Si      -1.62284238      -1.80874386      -0.88813612       0.00000000
Si       0.55386000       1.27704870      -3.00364012       0.00000000
Si       2.21894465      -0.47537478      -2.61273549       0.00000000
Si      -0.93289572      -0.72469323       3.39128948       0.00000000
Si      -3.57912477       0.78657309       1.15335367       0.00000000
Si       2.14713181      -3.23011152       0.02806372       0.00000000
Si      -0.71315991       3.24958526       2.16364749       0.00000000
