10
Lattice="16.28999089631971 0.0 0.0 0.0 16.28999089631971 0.0 0.0 0.0 34.26581377546328" Properties=species:S:1:pos:R:3:initial_magmoms:R:1 pbc="T T T"
Si       0.29005974      -2.27098890       0.22711394       0.00000000
Si      -1.20806640       1.16527257      -1.67971113       0.00000000
Si       2.26766574       0.69944373      -0.09416251       0.00000000
Si      -0.99522126       0.57287043       2.11975025       0.00000000
Si       0.10044414       3.02075244      -1.08735768       0.00000000
Si       0.40342185      -2.59384041      -2.15758244       0.00000000
Si      -3.32497373       1.39321854      -0.57467228       0.00000000
Si       0.85007736       1.52541189       3.33383395       0.00000000
Si       2.31679638       2.54834244      -1.61683333       0.00000000
Si       2.26826847      -2.66326839       1.72473643       0.00000000
