10
Lattice="16.28999089631971 0.0 0.0 0.0 16.28999089631971 0.0 0.0 0.0 34.26581377546328" Properties=species:S:1:pos:R:3:initial_magmoms:R:1 pbc="T T T"
Si      -1.35798011      -1.35647319       1.35627593       0.00000000
Si       1.35780954       1.35624024       1.35675565       0.00000000
Si       1.35749025      -1.35836771      -1.35726964       0.00000000
Si      -1.35815930       1.35803214      -1.35733817       0.00000000
Si       2.71656333      -0.00096111       2.70984487       0.00000000
Si      -0.00263585      -2.71309118       2.71464208       0.00000000
Si       2.71454337       2.71458189      -0.00041119       0.00000000
Si       2.71384290      -0.00048870      -2.71570432       0.00000000
Si      -2.71702223      -0.00004887       2.71258613       0.00000000
Si       2.71468998      -2.71502839      -0.00030839       0.00000000
