10
Lattice="16.28999089631971 0.0 0.0 0.0 16.28999089631971 0.0 0.0 0.0 34.26581377546328" Properties=species:S:1:pos:R:3:initial_magmoms:R:1 pbc="T T T"
Si      -1.35387917       1.35884664      -1.35692698       0.00000000
Si      -1.35638783      -1.35865116       1.35747524       0.00000000
Si       1.35837880       1.35698958       1.35757803       0.00000000
Si       1.36046392      -1.36363590      -1.35908573       0.00000000
Si      -2.71375208       2.71440270      -0.00058252       0.00000000
Si       0.00071460       2.71451673       2.71501901       0.00000000
Si      -2.71298645      -2.71660185       0.00061678       0.00000000
Si      -0.00361736      -2.71611315      -2.71351131       0.00000000
Si      -2.71479464       0.00006516       2.71508754       0.00000000
Si       0.00063095      -2.71572219       2.71450502       0.00000000
