10
Lattice="16.28999089631971 0.0 0.0 0.0 16.28999089631971 0.0 0.0 0.0 34.26581377546328" Properties=species:S:1:pos:R:3:initial_magmoms:R:1 pbc="T T T"
Si      -1.36792017       1.33125138       1.32262689       0.00000000
Si       1.36748034      -1.34071587       1.35003955       0.00000000
Si       1.37091753       1.34627076      -1.34411156       0.00000000
Si      -1.34470692      -1.37310039      -1.34685283       0.00000000
Si       0.02446758       2.56870494       2.68229514       0.00000000
Si       0.01181025       2.70249471      -2.70240918       0.00000000
Si      -2.70207932      -0.01231524      -2.70302596       0.00000000
Si      -2.68910596      -2.72995965       0.01833222       0.00000000
Si       0.01171251      -2.72681568      -2.70439660       0.00000000
Si       2.72826549      -0.01303200      -2.70395114       0.00000000
