10
Lattice="16.28999089631971 0.0 0.0 0.0 16.28999089631971 0.0 0.0 0.0 34.26581377546328" Properties=species:S:1:pos:R:3:initial_magmoms:R:1 pbc="T T T"
Si       1.39238775       1.23745356       1.35966825       0.00000000
Si       1.36792017      -1.33125138      -1.32262689       0.00000000
Si      -1.35210747       1.38686544      -1.29202750       0.00000000
Si      -1.41179240      -1.24729272       1.46599513       0.00000000
Si       0.48195594       1.03894362       3.48380723       0.00000000
Si      -2.69287451       0.01638774      -2.66451117       0.00000000
Si       0.02321325      -2.70435177      -2.66947971       0.00000000
Si       0.01914075       2.73132801      -2.66365452       0.00000000
Si       2.73883770       0.01501938      -2.66673845       0.00000000
Si       2.73540051      -2.67196725       0.02741267       0.00000000
