10
Lattice="16.28999089631971 0.0 0.0 0.0 16.28999089631971 0.0 0.0 0.0 34.26581377546328" Properties=species:S:1:pos:R:3:initial_magmoms:R:1 pbc="T T T"
Si       1.30851054       1.85547987       0.59235345       0.00000000
Si       1.20806640      -1.16527257       1.67971113       0.00000000
Si      -2.11690733       0.22794597       1.10503885       0.00000000
Si       0.02805138      -0.00461007      -2.42115522       0.00000000
Si      -3.13816166       2.04792993       0.10368841       0.00000000
Si       3.52486278       1.38306987       0.06287780       0.00000000
Si      -1.86050208      -1.37037996      -3.05246893       0.00000000
Si       3.47573214      -0.46582884       1.58554862       0.00000000
Si       0.21284514      -0.59240214       3.79946138       0.00000000
Si       0.48878145       3.85276419      -0.23352165       0.00000000
