10
Lattice="16.28999089631971 0.0 0.0 0.0 16.28999089631971 0.0 0.0 0.0 34.26581377546328" Properties=species:S:1:pos:R:3:initial_magmoms:R:1 pbc="T T T"
Si      -1.35324777       1.35651717      -1.36199833       0.00000000
Si       1.36058967      -1.36008468      -1.36138154       0.00000000
Si      -1.37124822      -1.34446257       1.37162703       0.00000000
Si       1.37815029       1.35140211       1.38409979       0.00000000
Si      -0.01914075      -2.73132801       2.66365452       0.00000000
Si      -2.71201526      -2.71494027      -0.00085665       0.00000000
Si      -2.71377461       2.71490691      -0.00486575       0.00000000
Si       2.71858923       2.71104561       0.00027413       0.00000000
Si      -2.71157660      -0.00192222      -2.71954210       0.00000000
Si       0.00355122       2.71296970      -2.71981622       0.00000000
