10
Lattice="16.28999089631971 0.0 0.0 0.0 16.28999089631971 0.0 0.0 0.0 34.26581377546328" Properties=species:S:1:pos:R:3:initial_magmoms:R:1 pbc="T T T"
Si       1.69250331       1.00499935      -1.32564228       0.00000000
Si      -1.66508465       1.75242348      -0.39090462       0.00000000
Si      -1.19370092      -1.75598055      -1.24967493       0.00000000
Si      -0.00315374      -0.35295543       2.50976667       0.00000000
Si      -2.21894465       0.47537478       2.61273549       0.00000000
Si      -1.60196090       2.69134325       1.68430275       0.00000000
Si       0.30180483       2.32549917      -2.79592064       0.00000000
Si      -2.43328847      -0.41000301      -2.79763393       0.00000000
Si       2.61085206       2.68334486       0.24825596       0.00000000
Si      -0.07181284      -2.75473674       2.64079921       0.00000000
