10
Lattice="10.86 0.0 0.0 0.0 10.86 0.0 0.0 0.0 10.86" Properties=species:S:1:pos:R:3:initial_magmoms:R:1 pbc="T T T"
Si      -0.96342318      -1.38887454       1.27497486       0.00000000
Si       1.34882286      -1.18819260      -1.38786456       0.00000000
Si       1.34882286       1.52680740       1.32713544       0.00000000
Si      -1.36617714       1.52680740      -1.38786456       0.00000000
Si      -2.35313394      -2.50119918      -0.10402794       0.00000000
Si      -2.51018040       0.18417474       2.67353652       0.00000000
Si      -0.00867714      -2.54569260      -2.74536456       0.00000000
Si       2.68700292      -2.63403870      -0.09143034       0.00000000
Si       2.70632286       0.16930740      -2.74536456       0.00000000
Si      -2.72367714       0.16930740      -2.74536456       0.00000000
