10
Lattice="10.86 0.0 0.0 0.0 10.86 0.0 0.0 0.0 10.86" Properties=species:S:1:pos:R:3:initial_magmoms:R:1 pbc="T T T"
Si      -1.41564444      -1.13425098       1.37245422       0.00000000
Si       1.37681994      -1.26915390      -1.29643422       0.00000000
Si      -1.33818006       1.44584610      -1.29643422       0.00000000
Si       1.37681994       1.44584610       1.41856578       0.00000000
Si      -0.00946992      -2.29179666       2.69604930       0.00000000
Si       0.01931994      -2.62665390      -2.65393422       0.00000000
Si      -2.68700292       2.63403870       0.09143034       0.00000000
Si      -2.69568006       0.08834610      -2.65393422       0.00000000
Si       2.73431994      -2.62665390       0.06106578       0.00000000
Si      -2.67971586      -2.69834076      -0.12796338       0.00000000
