10
Lattice="10.86 0.0 0.0 0.0 10.86 0.0 0.0 0.0 10.86" Properties=species:S:1:pos:R:3:initial_magmoms:R:1 pbc="T T T"
Si       1.43219508       1.18785594       1.45548978       0.00000000
Si      -1.36830570       0.89422326      -1.70728974       0.00000000
Si       1.43219508      -1.52714406      -1.25951022       0.00000000
Si      -1.28280492      -1.52714406       1.45548978       0.00000000
Si      -0.02574906       2.72847726      -2.46817392       0.00000000
Si       2.78969508       2.54535594       0.09798978       0.00000000
Si      -0.05647200       2.41569840       2.93770602       0.00000000
Si       2.78969508      -0.16964406      -2.61701022       0.00000000
Si       0.07469508      -2.88464406      -2.61701022       0.00000000
Si      -2.64030492      -2.88464406       0.09798978       0.00000000
