10
Lattice="10.86 0.0 0.0 0.0 10.86 0.0 0.0 0.0 10.86" Properties=species:S:1:pos:R:3:initial_magmoms:R:1 pbc="T T T"
Si       1.45794414       1.17437868       1.20866370       0.00000000
Si      -1.25705586       1.17437868      -1.50633630       0.00000000
Si      -1.34255664      -1.83425400       0.76088418       0.00000000
Si       1.45794414      -1.54062132      -1.50633630       0.00000000
Si      -2.69811270       2.28507432      -0.42313818       0.00000000
Si       0.10884978       2.58626556       2.55408738       0.00000000
Si       0.02574906      -2.72847726       2.46817392       0.00000000
Si       2.81544414       2.53187868      -0.14883630       0.00000000
Si       2.81544414      -0.18312132       2.56616370       0.00000000
Si       0.10044414       2.53187868      -2.86383630       0.00000000
