10
Lattice="10.86 0.0 0.0 0.0 10.86 0.0 0.0 0.0 10.86" Properties=species:S:1:pos:R:3:initial_magmoms:R:1 pbc="T T T"
Si      -1.37294292      -1.16636400       1.18785594       0.00000000
Si       1.34205708      -1.16636400      -1.52714406       0.00000000
Si       1.34205708       1.54863600       1.18785594       0.00000000
Si      -1.49551974       1.35509994      -1.24865022       0.00000000
Si      -0.01544292      -2.52386400       2.54535594       0.00000000
Si       2.69955708      -2.52386400      -0.16964406       0.00000000
Si       2.69955708       0.19113600       2.54535594       0.00000000
Si      -2.73044292      -2.52386400      -0.16964406       0.00000000
Si      -2.73044292       0.19113600       2.54535594       0.00000000
Si      -0.01544292      -2.52386400      -2.88464406       0.00000000
