10
Lattice="10.86 0.0 0.0 0.0 10.86 0.0 0.0 0.0 10.86" Properties=species:S:1:pos:R:3:initial_magmoms:R:1 pbc="T T T"
Si      -1.27331328       1.55414202      -1.07883240       0.00000000
Si      -1.27331328      -1.16085798       1.63616760       0.00000000
Si       1.44168672       1.55414202       1.63616760       0.00000000
Si       1.92670518      -1.53098850      -1.09368888       0.00000000
Si       0.12907110      -2.22762492      -2.48950296       0.00000000
Si      -2.63081328       0.19664202      -2.43633240       0.00000000
Si      -2.63081328      -2.51835798       0.27866760       0.00000000
Si      -0.13061322      -2.60719278       2.61594594       0.00000000
Si       0.08418672       2.91164202      -2.43633240       0.00000000
Si       3.00666702      -0.03630498      -2.33802768       0.00000000
