10
Lattice="10.86 0.0 0.0 0.0 10.86 0.0 0.0 0.0 10.86" Properties=species:S:1:pos:R:3:initial_magmoms:R:1 pbc="T T T"
Si       1.28886480       1.36334268      -1.41140904       0.00000000
Si      -1.42613520       1.36334268       1.30359096       0.00000000
Si      -1.42613520      -1.35165732      -1.41140904       0.00000000
Si       2.59224942       0.01481304       2.60553120       0.00000000
Si       2.60148042      -2.68450512      -0.02549928       0.00000000
Si       2.64636480       2.72084268      -0.05390904       0.00000000
Si      -0.06863520       2.72084268       2.66109096       0.00000000
Si       2.64636480       0.00584268      -2.76890904       0.00000000
Si      -2.78363520       0.00584268       2.66109096       0.00000000
Si      -0.06863520      -2.70915732      -2.76890904       0.00000000
