10
Lattice="10.86 0.0 0.0 0.0 10.86 0.0 0.0 0.0 10.86" Properties=species:S:1:pos:R:3:initial_magmoms:R:1 pbc="T T T"
Si       1.41161538       1.34852964      -1.30194024       0.00000000
Si      -1.30338462       1.34852964       1.41305976       0.00000000
Si       1.41161538      -1.36647036       1.41305976       0.00000000
Si      -2.59224942      -0.01481304      -2.60553120       0.00000000
Si       0.00923100      -2.69931816      -2.63103048       0.00000000
Si       0.05411538       2.70602964      -2.65944024       0.00000000
Si      -2.66088462       2.70602964       0.05555976       0.00000000
Si       2.76911538      -0.00897036      -2.65944024       0.00000000
Si      -2.66088462      -0.00897036       2.77055976       0.00000000
Si       2.76911538       2.70602964       0.05555976       0.00000000
