10
Lattice="16.28999089631971 0.0 0.0 0.0 16.28999089631971 0.0 0.0 0.0 34.185847837958455" Properties=species:S:1:pos:R:3:initial_magmoms:R:1 pbc="T T T"
Si      -1.35514881      -1.35663758      -1.35721310       0.00000000
Si      -1.35449721       1.35931579       1.35553800       0.00000000
Si       1.35971001       1.35809404      -1.35745240       0.00000000
Si       1.36044306      -1.35639729       1.36018727       0.00000000
Si      -0.00239463       2.68431181       2.70338417       0.00000000
Si      -2.71298058       0.00128039      -2.71517830       0.00000000
Si      -2.71297732       2.71519765      -0.00153836       0.00000000
Si       0.00228060      -2.71374525      -2.71463132       0.00000000
Si      -2.71405898      -2.71610730      -0.00092302       0.00000000
Si       0.00203625       2.71656601      -2.71456295       0.00000000
