10
Lattice="16.28999089631971 0.0 0.0 0.0 16.28999089631971 0.0 0.0 0.0 34.185847837958455" Properties=species:S:1:pos:R:3:initial_magmoms:R:1 pbc="T T T"
Si       0.52481493       1.87875828      -1.48595708       0.00000000
Si       0.69429609       1.29573918       1.99382232       0.00000000
Si       1.51053912      -1.99038455      -0.00458091       0.00000000
Si      -2.01912921      -0.80093762      -1.26262081       0.00000000
Si       1.94227299       0.56755337      -2.86939074       0.00000000
Si       3.23260389      -0.98900567      -1.37338302       0.00000000
Si      -0.79679277      -2.14522100      -2.86826261       0.00000000
Si       0.53787951      -3.55482728      -1.46698392       0.00000000
Si      -1.12493853      -1.31151509       3.50866645       0.00000000
Si       3.43727145       0.84789450       1.91485297       0.00000000
