10
Lattice="16.28999089631971 0.0 0.0 0.0 16.28999089631971 0.0 0.0 0.0 34.185847837958455" Properties=species:S:1:pos:R:3:initial_magmoms:R:1 pbc="T T T"
Si       2.30720157      -0.35445411       0.00629020       0.00000000
Si      -0.94058460      -0.64076715      -2.09200413       0.00000000
Si      -0.70408638      -1.40766451       1.79992008       0.00000000
Si      -0.93362877       2.23805052       0.32821851       0.00000000
Si      -0.65461365       0.17881533       3.50774344       0.00000000
Si      -3.11350770       0.22483458      -1.75503404       0.00000000
Si      -1.85012046       1.98560439       2.52773719       0.00000000
Si       3.21852933       1.79357787      -0.55230687       0.00000000
Si      -2.95933914      -1.79732294       1.49139263       0.00000000
Si      -2.42002611       2.45024406      -1.53621030       0.00000000
