10
Lattice="16.28999089631971 0.0 0.0 0.0 16.28999089631971 0.0 0.0 0.0 34.185847837958455" Properties=species:S:1:pos:R:3:initial_magmoms:R:1 pbc="T T T"
Si      -0.04947273      -1.58647984      -1.70782335       0.00000000
Si      -1.19550681       1.80678906      -0.98000625       0.00000000
Si      -1.07790930      -0.30986838       2.10137106       0.00000000
Si       2.34668853       0.42160149       0.17557861       0.00000000
Si      -0.46014363       1.94219154       2.63521755       0.00000000
Si       0.65461365      -0.17881533      -3.50774344       0.00000000
Si      -0.96738165       3.40807977       0.73291080       0.00000000
Si      -2.30472549      -1.97613827      -2.01635080       0.00000000
Si      -0.27901512       2.05923519      -3.17952493       0.00000000
Si       0.97855659      -3.57064487      -0.88025189       0.00000000
