10
Lattice="16.28999089631971 0.0 0.0 0.0 16.28999089631971 0.0 0.0 0.0 34.185847837958455" Properties=species:S:1:pos:R:3:initial_magmoms:R:1 pbc="T T T"
Si      -1.35552348       1.35653346       1.35557218       0.00000000
Si      -1.35656604      -1.35803214      -1.35738403       0.00000000
Si       1.35902583       1.35725022      -1.35745240       0.00000000
Si       1.36112724      -1.35980775       1.36213587       0.00000000
Si      -2.70548881       0.00350235       2.68649635       0.00000000
Si      -2.71478877       2.71283886       0.00013674       0.00000000
Si      -2.71366965      -0.00055386      -2.71446039       0.00000000
Si       0.00135207       2.71433754      -2.71442621       0.00000000
Si       0.00094482      -2.71484253      -2.71435784       0.00000000
Si      -2.71406875      -2.71621089      -0.00133325       0.00000000
