10
Lattice="16.28999089631971 0.0 0.0 0.0 16.28999089631971 0.0 0.0 0.0 34.185847837958455" Properties=species:S:1:pos:R:3:initial_magmoms:R:1 pbc="T T T"
Si       1.35438318      -1.35681039      -1.36203331       0.00000000
Si       1.37174832       1.36383138       1.34705990       0.00000000
Si      -1.36112724       1.35980775      -1.36213587       0.00000000
Si      -1.36461330      -1.38728898       1.34145342       0.00000000
Si      -0.06164136       2.64534939       2.66386531       0.00000000
Si       2.71277370      -2.71505430      -0.00328184       0.00000000
Si      -2.71671588      -2.71228500      -0.00639276       0.00000000
Si       2.71249677       2.71881729      -0.00864902       0.00000000
Si       2.71275741       0.00208512      -2.71945153       0.00000000
Si      -0.00250866      -2.71350675      -2.71938316       0.00000000
