10
Lattice="16.28999089631971 0.0 0.0 0.0 16.28999089631971 0.0 0.0 0.0 34.185847837958455" Properties=species:S:1:pos:R:3:initial_magmoms:R:1 pbc="T T T"
Si       1.43338968      -1.28151801      -1.31680541       0.00000000
Si      -0.96045840      -1.83164760       1.09521262       0.00000000
Si      -1.30662090       1.43845587      -1.30689151       0.00000000
Si       1.34227971       1.26226323       1.50985300       0.00000000
Si       0.06164136      -2.64534939      -2.66386531       0.00000000
Si      -2.65500936       0.07099182      -2.67042900       0.00000000
Si       2.78733303      -2.57913054       0.12505190       0.00000000
Si      -2.61951345       2.75732685       0.13735881       0.00000000
Si       0.87871518      -3.48548985       1.31694215       0.00000000
Si       2.77413813       0.07346790      -2.67251433       0.00000000
