10
Lattice="16.28999089631971 0.0 0.0 0.0 16.28999089631971 0.0 0.0 0.0 34.185847837958455" Properties=species:S:1:pos:R:3:initial_magmoms:R:1 pbc="T T T"
Si       0.29431143       0.11696220      -2.38080633       0.00000000
Si      -0.39920274      -2.39293584      -0.12214610       0.00000000
Si       2.04288003       0.53610390       1.24361347       0.00000000
Si      -1.92886632       1.34516304       0.80825645       0.00000000
Si      -1.54486215       1.77080445      -2.60253586       0.00000000
Si       3.56604390      -0.76566258      -0.03664725       0.00000000
Si       2.34377262      -2.84078052      -0.20111546       0.00000000
Si       2.22247728       2.86474311       1.01839698       0.00000000
Si      -1.83676266      -2.76104097       1.92066456       0.00000000
Si      -1.12127328       3.21929496       1.99754858       0.00000000
