10
Lattice="16.28999089631971 0.0 0.0 0.0 16.28999089631971 0.0 0.0 0.0 34.185847837958455" Properties=species:S:1:pos:R:3:initial_magmoms:R:1 pbc="T T T"
Si      -0.13665681       0.83264706      -2.22768783       0.00000000
Si       2.16775917      -0.88560585       0.51473660       0.00000000
Si      -0.50968152       1.98342153       1.27472261       0.00000000
Si      -1.00186758      -2.12579613       0.60156870       0.00000000
Si      -0.43492671       1.24207992       3.45232814       0.00000000
Si       0.21163968      -3.60316555      -0.79847929       0.00000000
Si      -0.04939128      -2.45979000       2.76539733       0.00000000
Si       2.08565757      -1.40809131       2.78891721       0.00000000
Si       0.52458687      -0.93263508      -3.63406021       0.00000000
Si       1.35953082       2.71093293      -2.30491371       0.00000000
