10
Lattice="16.28999089631971 0.0 0.0 0.0 16.28999089631971 0.0 0.0 0.0 34.185847837958455" Properties=species:S:1:pos:R:3:initial_magmoms:R:1 pbc="T T T"
Si       2.22855345      -0.59429178       0.41812734       0.00000000
Si      -1.57770279      -1.71703116       0.30230562       0.00000000
Si      -0.26270883       0.65454849      -2.30005931       0.00000000
Si      -0.67452003       1.38984651       1.86856530       0.00000000
Si      -3.38847801      -0.13331736       0.69578495       0.00000000
Si      -1.26236097       3.30328620       0.60498729       0.00000000
Si       3.29955579       1.57897341       0.48855022       0.00000000
Si       2.30330826      -1.33563339       2.59573288       0.00000000
Si       1.28462940       2.44599237      -2.49232063       0.00000000
Si      -2.48717349       0.21439269       2.89714967       0.00000000
