10
Lattice="16.28999089631971 0.0 0.0 0.0 16.28999089631971 0.0 0.0 0.0 34.185847837958455" Properties=species:S:1:pos:R:3:initial_magmoms:R:1 pbc="T T T"
Si      -1.34351775       1.30458465      -1.34542240       0.00000000
Si       1.34508159       1.35110889       1.34075261       0.00000000
Si       1.35384561      -1.33007850      -1.37234377       0.00000000
Si      -1.36503684      -1.36951659       1.34153888       0.00000000
Si       0.24127119       2.16694467      -2.80549534       0.00000000
Si      -0.46278261      -2.18650896      -2.84771489       0.00000000
Si      -2.23686135      -0.33067071      -2.82809220       0.00000000
Si       2.70422145      -0.00623907       2.69905966       0.00000000
Si      -0.01141929       2.70840798       2.69899129       0.00000000
Si       2.70945054       2.70622512      -0.04414079       0.00000000
