10
Lattice="16.28999089631971 0.0 0.0 0.0 16.28999089631971 0.0 0.0 0.0 34.185847837958455" Properties=species:S:1:pos:R:3:initial_magmoms:R:1 pbc="T T T"
Si      -1.34074845      -1.35498591       1.35570893       0.00000000
Si      -1.35591444       1.35529542      -1.35440986       0.00000000
Si       1.35570267      -1.35834165      -1.35417056       0.00000000
Si       1.35786924       1.33942896       1.37820323       0.00000000
Si      -2.71349046       2.71024875       0.00622183       0.00000000
Si       0.00009774       2.71275741      -2.71131529       0.00000000
Si      -2.71459818      -0.00175932      -2.71093925       0.00000000
Si       2.71479366      -0.00167787      -2.71097343       0.00000000
Si       0.00026064      -2.71673217      -2.71080251       0.00000000
Si       2.71880100       2.70977634       0.00447835       0.00000000
