10
Lattice="16.28999089631971 0.0 0.0 0.0 16.28999089631971 0.0 0.0 0.0 34.185847837958455" Properties=species:S:1:pos:R:3:initial_magmoms:R:1 pbc="T T T"
Si      -0.93076173       2.01782601       1.07815387       0.00000000
Si       1.80651213       0.56549106       1.63996441       0.00000000
Si       1.18192095      -0.25945083      -2.31072530       0.00000000
Si      -0.69722829      -1.90487115       1.87471876       0.00000000
Si      -2.96103330       1.09395495      -0.12949606       0.00000000
Si      -1.07228925       2.51133156      -1.95649135       0.00000000
Si      -2.47129074      -0.47830698       2.33161287       0.00000000
Si       2.92355001      -1.38562740      -1.19780441       0.00000000
Si       2.64652227      -2.25942300       0.89556716       0.00000000
Si       3.04230411       2.36822391       0.01042669       0.00000000
