10
Lattice="16.28999089631971 0.0 0.0 0.0 16.28999089631971 0.0 0.0 0.0 34.185847837958455" Properties=species:S:1:pos:R:3:initial_magmoms:R:1 pbc="T T T"
Si       0.81132019       0.83846259      -2.05183573       0.00000000
Si       0.08817288       1.90068462       1.51918574       0.00000000
Si       1.92312410      -1.34675036       0.65089891       0.00000000
Si      -2.23567122      -0.88997876      -0.40161556       0.00000000
Si       0.84666135       0.89848472       3.49813721       0.00000000
Si       3.77352148       0.09673002      -0.03521144       0.00000000
Si      -1.98335541      -3.21930215      -0.71653577       0.00000000
Si       2.12775908      -1.16006696       3.00169005       0.00000000
Si       3.05640310       1.57718151      -1.75588868       0.00000000
Si      -0.43585428       2.58193242      -2.90275615       0.00000000
