10
Lattice="16.28999089631971 0.0 0.0 0.0 16.28999089631971 0.0 0.0 0.0 34.185847837958455" Properties=species:S:1:pos:R:3:initial_magmoms:R:1 pbc="T T T"
Si       1.33920090       1.36076886      -1.35217411       0.00000000
Si       1.35317772      -1.36060596       1.35724729       0.00000000
Si      -1.36212093       1.35436689       1.35796519       0.00000000
Si      -1.37285604      -1.38144087      -1.36586213       0.00000000
Si       2.49606783      -0.07612317      -2.76003357       0.00000000
Si       2.71081890       2.71425024       0.00157255       0.00000000
Si       2.71158453      -0.00112401       2.71524667       0.00000000
Si      -0.00267156       2.71243065       2.71555434       0.00000000
Si       2.71360449      -2.71479366      -0.00085465       0.00000000
Si      -2.71661814       2.71186213      -0.00068372       0.00000000
