10
Lattice="16.28999089631971 0.0 0.0 0.0 16.28999089631971 0.0 0.0 0.0 34.185847837958455" Properties=species:S:1:pos:R:3:initial_magmoms:R:1 pbc="T T T"
Si      -1.35689184      -1.35610992      -1.35765752       0.00000000
Si       1.35910728      -1.35527913       1.35909333       0.00000000
Si       1.35760860       1.35884134      -1.35769171       0.00000000
Si      -1.35638685       1.35868374       1.36025565       0.00000000
Si       0.00001629      -2.71352304      -2.71483644       0.00000000
Si      -2.71513575      -2.71366965       0.00119651       0.00000000
Si       2.71432125      -2.71461447       0.00010256       0.00000000
Si      -2.71454931       0.00133578      -2.71456295       0.00000000
Si       2.71494027       0.00184077      -2.71463132       0.00000000
Si       0.00068418       2.71539543      -2.71432365       0.00000000
