10
Lattice="16.28999089631971 0.0 0.0 0.0 16.28999089631971 0.0 0.0 0.0 34.185847837958455" Properties=species:S:1:pos:R:3:initial_magmoms:R:1 pbc="T T T"
Si      -0.97265961      -1.56444273      -1.46240302       0.00000000
Si       1.72206477       1.00137888      -1.36880211       0.00000000
Si      -1.51053912       1.99038455       0.00458091       0.00000000
Si       0.20484675      -1.70917938       2.04332345       0.00000000
Si      -1.91337453      -2.97543366       0.28688780       0.00000000
Si      -2.30733189      -0.15483645      -2.86368170       0.00000000
Si       0.43173387       2.55793792      -2.86480984       0.00000000
Si       3.15288063       2.26601623      -0.02334895       0.00000000
Si       1.92673233       2.83827905       1.91943387       0.00000000
Si      -3.52966833       1.18944693      -1.25803990       0.00000000
