10
Lattice="16.28999089631971 0.0 0.0 0.0 16.28999089631971 0.0 0.0 0.0 34.185847837958455" Properties=species:S:1:pos:R:3:initial_magmoms:R:1 pbc="T T T"
Si      -2.31231663      -0.24770574       0.24545452       0.00000000
Si       0.94545531       1.89426636       1.03432759       0.00000000
Si       0.91466721      -1.72550196       1.32097608       0.00000000
Si       0.64425321      -0.32643531      -2.28098360       0.00000000
Si       2.33782677      -1.87116714      -1.99324116       0.00000000
Si       0.83370591       1.12348872       3.34949706       0.00000000
Si      -3.22447518       1.49788179      -1.05504423       0.00000000
Si       2.30228199      -0.63726480       2.87195468       0.00000000
Si       1.86184926      -3.25397637      -0.14713597       0.00000000
Si      -2.91646060       0.60010731       2.40039483       0.00000000
