10
Lattice="16.28999089631971 0.0 0.0 0.0 16.28999089631971 0.0 0.0 0.0 34.185847837958455" Properties=species:S:1:pos:R:3:initial_magmoms:R:1 pbc="T T T"
Si      -0.94545531      -1.89426636      -1.03432759       0.00000000
Si       2.34206217       0.15747543      -0.26258164       0.00000000
Si      -1.02802932       1.98416502      -0.82757147       0.00000000
Si      -0.11174940      -0.77077764       2.31516947       0.00000000
Si       1.35682668      -2.53153116       1.83762709       0.00000000
Si       2.58163920       2.51487693      -0.34421749       0.00000000
Si      -0.03078810      -3.61976832       0.28664849       0.00000000
Si       3.27943764      -1.29311649       1.38914270       0.00000000
Si      -0.97855659       3.57064487       0.88025189       0.00000000
Si      -3.28328208       1.59450660      -1.13609892       0.00000000
