10
Lattice="16.28999089631971 0.0 0.0 0.0 16.28999089631971 0.0 0.0 0.0 34.185847837958455" Properties=species:S:1:pos:R:3:initial_magmoms:R:1 pbc="T T T"
Si       1.60870266       1.72906947      -0.06098759       0.00000000
Si      -1.68963138       0.33344001      -1.61965800       0.00000000
Si       1.26649863      -1.99420551       0.20525195       0.00000000
Si      -1.88553492       0.52748649       1.67531260       0.00000000
Si      -0.17308125      -2.08814994       1.98257517       0.00000000
Si       3.35238426      -1.00131372       0.55651173       0.00000000
Si       0.46806057       3.26617758       1.52161294       0.00000000
Si      -2.14650072       2.70428661      -1.13264614       0.00000000
Si      -1.94186574       2.89097001       1.21814500       0.00000000
Si       3.39819174       1.16559837       1.47997455       0.00000000
