10
Lattice="16.28999089631971 0.0 0.0 0.0 16.28999089631971 0.0 0.0 0.0 34.185847837958455" Properties=species:S:1:pos:R:3:initial_magmoms:R:1 pbc="T T T"
Si      -0.02261052       1.10177415       2.08096209       0.00000000
Si       2.30221683      -0.52204563      -0.22114837       0.00000000
Si      -1.02866463       1.26926793      -1.72689907       0.00000000
Si      -1.01015919      -2.17118007      -0.27745250       0.00000000
Si      -2.25093591      -0.80585001      -1.89136727       0.00000000
Si      -2.27235726       1.70823456       1.77011000       0.00000000
Si       2.34830124      -0.66893256      -2.58489596       0.00000000
Si       0.80361828      -0.70035597       3.39448566       0.00000000
Si      -2.55182850       2.57103441      -0.44663835       0.00000000
Si       0.71514729      -2.47134680      -2.62294483       0.00000000
