10
Lattice="16.28999089631971 0.0 0.0 0.0 16.28999089631971 0.0 0.0 0.0 34.185847837958455" Properties=species:S:1:pos:R:3:initial_magmoms:R:1 pbc="T T T"
Si       0.75848846      -1.00219990       1.97895147       0.00000000
Si       0.31797591       2.21822559      -0.83635723       0.00000000
Si      -0.08817288      -1.90068462      -1.51918574       0.00000000
Si      -2.34559125       1.26672669       0.55794753       0.00000000
Si       2.67465184       0.54063252       1.56458457       0.00000000
Si      -1.44239220      -1.50547293       2.93608737       0.00000000
Si       0.72314731      -1.06222203      -3.57102147       0.00000000
Si      -1.05328926       2.36638314      -2.78149888       0.00000000
Si       1.83495121      -3.24743498      -0.86828683       0.00000000
Si       0.13763747       3.81565557       0.82562287       0.00000000
