10
Lattice="16.28999089631971 0.0 0.0 0.0 16.28999089631971 0.0 0.0 0.0 34.185847837958455" Properties=species:S:1:pos:R:3:initial_magmoms:R:1 pbc="T T T"
Si       1.35687555      -1.35881406      -1.36295633       0.00000000
Si      -1.35940050       1.35954711      -1.36381098       0.00000000
Si      -1.36366848      -1.36013355       1.37888694       0.00000000
Si       1.37169945       1.35567009       1.37792974       0.00000000
Si       2.71627605      -2.71252935      -0.00820461       0.00000000
Si      -2.71482624      -2.71598283      -0.00427323       0.00000000
Si       2.71717200       2.71524978      -0.00423905       0.00000000
Si      -2.71510317       2.71788876      -0.00964041       0.00000000
Si       0.00022806      -2.71401174      -2.72030618       0.00000000
Si      -2.71484253       0.00115659      -2.72044292       0.00000000
