10
Lattice="16.28999089631971 0.0 0.0 0.0 16.28999089631971 0.0 0.0 0.0 34.185847837958455" Properties=species:S:1:pos:R:3:initial_magmoms:R:1 pbc="T T T"
Si       2.24974674      -0.60646041       0.31085209       0.00000000
Si      -0.66124368       1.76528214       1.40637238       0.00000000
Si      -0.27947124       0.86279985      -2.21674836       0.00000000
Si      -0.91132776      -2.14803198       0.55859707       0.00000000
Si       2.27235726      -1.70823456      -1.77011000       0.00000000
Si      -3.21852933      -1.79357787       0.55230687       0.00000000
Si       1.24369263      -0.43896663      -3.49700907       0.00000000
Si      -0.52458687       0.93263508       3.63406021       0.00000000
Si      -2.83131603       2.45878002       0.69981888       0.00000000
Si      -0.31294719      -2.67053047       2.83558092       0.00000000
