10
Lattice="16.28999089631971 0.0 0.0 0.0 16.28999089631971 0.0 0.0 0.0 34.185847837958455" Properties=species:S:1:pos:R:3:initial_magmoms:R:1 pbc="T T T"
Si       0.93468762       1.37951865       1.55313231       0.00000000
Si       0.27702774       0.87379560      -2.09337156       0.00000000
Si      -0.17959725      -2.32863921       0.22521649       0.00000000
Si      -0.84001014       2.82491406       0.74439725       0.00000000
Si      -3.34375056       0.35455185       0.97915160       0.00000000
Si       1.52823006      -0.73695960      -3.14913369       0.00000000
Si      -2.64652227       2.25942300      -0.89556716       0.00000000
Si      -2.22247728      -2.86474311      -1.01839698       0.00000000
Si       0.93481794       0.45212895       3.77111135       0.00000000
Si       2.97137745      -1.99124073      -1.64604949       0.00000000
