10
Lattice="16.28999089631971 0.0 0.0 0.0 16.28999089631971 0.0 0.0 0.0 34.185847837958455" Properties=species:S:1:pos:R:3:initial_magmoms:R:1 pbc="T T T"
Si       1.25066638      -1.36677987       1.47632008       0.00000000
Si       1.73868220       1.02894156      -1.32266285       0.00000000
Si      -1.44469282       1.33224507       1.47311687       0.00000000
Si      -1.19683444      -1.90193895      -1.23425820       0.00000000
Si      -2.68409257       2.54980854      -0.07542770       0.00000000
Si       2.45501866      -2.77535988      -0.00270752       0.00000000
Si       2.63202580       2.66419692       0.16000695       0.00000000
Si       3.51276094      -0.82689669      -1.34228554       0.00000000
Si       2.61050671      -0.00990432       2.84696823       0.00000000
Si      -0.10691941       2.71085148       2.84242151       0.00000000
