10
Lattice="16.28999089631971 0.0 0.0 0.0 16.28999089631971 0.0 0.0 0.0 34.185847837958455" Properties=species:S:1:pos:R:3:initial_magmoms:R:1 pbc="T T T"
Si       1.40465412      -1.29357261       1.39009307       0.00000000
Si      -0.78377706      -1.92033036      -1.20456945       0.00000000
Si      -1.35607734       1.42130250       1.38592239       0.00000000
Si       0.91523736       1.76689485      -1.60237504       0.00000000
Si       0.23350086       0.43259724      -3.49059721       0.00000000
Si       2.52139878       2.58892083       0.06993745       0.00000000
Si      -2.64065787      -2.76631893       0.03819929       0.00000000
Si       0.01430262      -2.64359007       2.76546571       0.00000000
Si      -2.69957880       0.07589511       2.76700407       0.00000000
Si       2.73150720       0.07346790       2.77315753       0.00000000
