10
Lattice="16.28999089631971 0.0 0.0 0.0 16.28999089631971 0.0 0.0 0.0 34.185847837958455" Properties=species:S:1:pos:R:3:initial_magmoms:R:1 pbc="T T T"
Si      -1.32473538      -1.39299048      -1.34059877       0.00000000
Si       1.35575154      -1.35391077       1.35899077       0.00000000
Si      -1.35876519       1.35909099       1.35964030       0.00000000
Si       1.39035150       1.35001746      -1.37537264       0.00000000
Si      -2.65496049      -0.12272886      -2.72726642       0.00000000
Si      -0.01430262       2.64359007      -2.76546571       0.00000000
Si      -2.71326240      -2.71125873       0.00304254       0.00000000
Si       2.71523349      -2.71213839      -0.00297417       0.00000000
Si      -0.00001629      -2.71322982       2.71770805       0.00000000
Si      -2.71495656       0.00169416       2.71753712       0.00000000
