10
Lattice="16.28999089631971 0.0 0.0 0.0 16.28999089631971 0.0 0.0 0.0 34.185847837958455" Properties=species:S:1:pos:R:3:initial_magmoms:R:1 pbc="T T T"
Si       1.35852978      -1.35140211      -1.35793101       0.00000000
Si      -1.35675325      -1.35490446       1.35642683       0.00000000
Si       1.35830824       1.35982404       1.35666613       0.00000000
Si      -1.35619939       1.36042677      -1.36398191       0.00000000
Si       0.00057083      -2.71231758       2.71350319       0.00000000
Si       0.02101376       2.69568549      -2.73181656       0.00000000
Si      -2.71455733       0.00215028       2.71367412       0.00000000
Si      -2.71481797      -2.71347417       0.00020512       0.00000000
Si       2.71552588      -2.71313208      -0.00164092       0.00000000
Si       2.71541185       0.00234576       2.71374249       0.00000000
