10
Lattice="16.28999089631971 0.0 0.0 0.0 16.28999089631971 0.0 0.0 0.0 34.185847837958455" Properties=species:S:1:pos:R:3:initial_magmoms:R:1 pbc="T T T"
Si       1.35288450      -1.35457866      -1.35765752       0.00000000
Si       1.36440153       1.35197226       1.36087099       0.00000000
Si      -1.36236528       1.36010097      -1.35772589       0.00000000
Si      -1.36093176      -1.37034738       1.37372488       0.00000000
Si      -0.07363080       2.52353277       2.78881465       0.00000000
Si       2.71347417      -2.71241532       0.00092302       0.00000000
Si       2.71104696       0.00320913      -2.71531504       0.00000000
Si      -0.00400734      -2.71145421      -2.71545178       0.00000000
Si      -2.71880100      -2.70977634      -0.00447835       0.00000000
Si       2.71210581       2.71801908      -0.00099139       0.00000000
