10
Lattice="16.28999089631971 0.0 0.0 0.0 16.28999089631971 0.0 0.0 0.0 34.185847837958455" Properties=species:S:1:pos:R:3:initial_magmoms:R:1 pbc="T T T"
Si      -0.75658905      -1.91016540      -1.13387683       0.00000000
Si       1.91791944       0.84005901      -1.11924528       0.00000000
Si      -1.82988828       1.71908370       0.29324637       0.00000000
Si       2.73443940       0.19740222       1.73076207       0.00000000
Si      -2.10507525      -0.49668210      -2.56978580       0.00000000
Si       0.62025804       2.22563754      -2.58263969       0.00000000
Si      -0.81777429       3.39719805      -1.15469603       0.00000000
Si      -3.48710256       0.82156986      -1.15445673       0.00000000
Si      -3.15317385      -1.77349230       1.34729920       0.00000000
Si      -1.90197153      -3.38424750       0.29153707       0.00000000
