10
Lattice="16.28999089631971 0.0 0.0 0.0 16.28999089631971 0.0 0.0 0.0 34.185847837958455" Properties=species:S:1:pos:R:3:initial_magmoms:R:1 pbc="T T T"
Si       0.79944804       0.49322862       2.12848045       0.00000000
Si       2.09243421      -0.53556633      -0.91884773       0.00000000
Si      -1.83523140      -1.41385797       0.40633321       0.00000000
Si      -0.79537554       2.24643987      -0.36872876       0.00000000
Si       3.10603059       1.59431859      -0.56898957       0.00000000
Si       2.15805033       2.35302534       1.52544175       0.00000000
Si      -2.37413718       1.83427029      -2.03193956       0.00000000
Si      -3.60992916       0.03153744      -0.40240184       0.00000000
Si      -2.08052622       2.51543664       1.63712698       0.00000000
Si      -1.04042601       1.27809711       3.32942995       0.00000000
