10
Lattice="16.28999089631971 0.0 0.0 0.0 16.28999089631971 0.0 0.0 0.0 34.185847837958455" Properties=species:S:1:pos:R:3:initial_magmoms:R:1 pbc="T T T"
Si       0.65054115       1.34837217       1.78474156       0.00000000
Si       1.83987405      -0.78486849      -1.20094951       0.00000000
Si      -1.04010021       1.23733953      -1.69230297       0.00000000
Si      -1.43159778      -1.78595415       0.65001007       0.00000000
Si       1.80827145      -0.24373098       3.11334109       0.00000000
Si      -3.13183395       0.07623720      -1.88203453       0.00000000
Si       1.04042601      -1.27809711      -3.32942995       0.00000000
Si      -0.79467507      -3.61934478      -0.70511769       0.00000000
Si      -1.24476777       2.54855421       2.53467692       0.00000000
Si       3.19847634       1.07492823      -1.80398820       0.00000000
