10
Lattice="16.28999089631971 0.0 0.0 0.0 16.28999089631971 0.0 0.0 0.0 34.185847837958455" Properties=species:S:1:pos:R:3:initial_magmoms:R:1 pbc="T T T"
Si       0.84387087       1.17257049       1.86562532       0.00000000
Si       1.71207900      -0.95938326      -1.32032655       0.00000000
Si      -1.15773030       1.59210315      -1.32859953       0.00000000
Si      -1.29088476      -1.88413398       0.81923012       0.00000000
Si       1.32778161      -0.66547908       3.27808278       0.00000000
Si      -1.80827145       0.24373098      -3.11334109       0.00000000
Si      -1.14363945       2.26033524       2.63709778       0.00000000
Si       3.15027423      -2.12597532       0.29259684       0.00000000
Si      -3.40115652      -1.92986001      -0.16839958       0.00000000
Si       0.21685248       3.51241722      -1.71609633       0.00000000
