10
Lattice="16.28999089631971 0.0 0.0 0.0 16.28999089631971 0.0 0.0 0.0 34.185847837958455" Properties=species:S:1:pos:R:3:initial_magmoms:R:1 pbc="T T T"
Si       2.25450342       0.14292846      -0.54034181       0.00000000
Si      -0.93546954       1.28301669      -1.69852480       0.00000000
Si      -1.21112892      -1.99423809       0.20863635       0.00000000
Si       2.79223632      -0.37375776       1.64367532       0.00000000
Si       0.93535551      -1.21974633       2.88644406       0.00000000
Si      -2.94572070      -0.27958527       1.46971879       0.00000000
Si       0.10601532      -3.11790600       1.77539757       0.00000000
Si      -0.88966206       3.44992878      -0.77506198       0.00000000
Si      -3.02135517       0.29012490      -2.04978458       0.00000000
Si      -1.97405478       1.49936418       2.78932201       0.00000000
