10
Lattice="16.28999089631971 0.0 0.0 0.0 16.28999089631971 0.0 0.0 0.0 34.185847837958455" Properties=species:S:1:pos:R:3:initial_magmoms:R:1 pbc="T T T"
Si      -1.20435228       1.40858001       1.47902760       0.00000000
Si       1.50298056      -1.30565979       1.45452659       0.00000000
Si      -1.89294687      -0.94159458      -1.45669880       0.00000000
Si       1.05774228       1.94846319      -1.33957802       0.00000000
Si      -2.45501866       2.77535988       0.00270752       0.00000000
Si      -2.57386398      -2.73943391       0.13190959       0.00000000
Si      -2.56219546       0.06051735       2.84970994       0.00000000
Si       0.15372873      -2.65936531       2.84834250       0.00000000
Si      -0.88713711      -0.93180429      -3.72188853       0.00000000
Si      -3.65185310       0.87342093      -1.23155068       0.00000000
