10
Lattice="16.28999089631971 0.0 0.0 0.0 16.28999089631971 0.0 0.0 0.0 34.185847837958455" Properties=species:S:1:pos:R:3:initial_magmoms:R:1 pbc="T T T"
Si      -1.35651717      -1.35588186       1.35779426       0.00000000
Si      -1.35317772       1.36060596      -1.35724729       0.00000000
Si       1.36042677      -1.35418770      -1.35810194       0.00000000
Si       1.35840681       1.35948195       1.35799938       0.00000000
Si      -2.71342530       0.00153126       2.71497318       0.00000000
Si       0.00144981      -2.71409319       2.71466551       0.00000000
Si      -2.71441899      -2.71477737       0.00085465       0.00000000
Si       2.71513575       2.71457054       0.00013674       0.00000000
Si       2.71554300      -2.71458189       0.00000000       0.00000000
Si      -2.71529865       2.71497285       0.00071790       0.00000000
