10
Lattice="16.28999089631971 0.0 0.0 0.0 16.28999089631971 0.0 0.0 0.0 34.185847837958455" Properties=species:S:1:pos:R:3:initial_magmoms:R:1 pbc="T T T"
Si       0.84543471       0.73800216       2.09289296       0.00000000
Si       1.98751032      -1.08776475      -0.77147246       0.00000000
Si      -1.72867851      -1.66314384       0.31109139       0.00000000
Si      -0.96021405       1.76852385      -1.42756762       0.00000000
Si       1.14363945      -2.26033524      -2.63709778       0.00000000
Si      -1.90939977       0.53194995      -3.21576195       0.00000000
Si       2.32805277       2.57225616       1.63223840       0.00000000
Si       2.47142106      -2.92581432       0.64098501       0.00000000
Si      -0.85796172       1.92694410       3.28057835       0.00000000
Si      -0.01409085      -0.66823209      -3.96569731       0.00000000
