10
Lattice="16.28999089631971 0.0 0.0 0.0 16.28999089631971 0.0 0.0 0.0 34.185847837958455" Properties=species:S:1:pos:R:3:initial_magmoms:R:1 pbc="T T T"
Si       1.01985174      -1.58553828       1.43594316       0.00000000
Si      -0.84543471      -0.73800216      -2.09289296       0.00000000
Si      -1.70339643       1.18894194       1.18768539       0.00000000
Si       1.48261806       1.83425400      -0.46065456       0.00000000
Si       2.89036728       1.28104560       1.49703330       0.00000000
Si       1.14207561      -1.82576691      -2.86436542       0.00000000
Si      -2.25502470       2.89416189      -0.38141172       0.00000000
Si      -0.01000206       3.67456529      -0.69267404       0.00000000
Si       1.70158824      -0.25124067       3.32416533       0.00000000
Si      -0.53515908      -3.42177966       1.53795378       0.00000000
