10
Lattice="16.28999089631971 0.0 0.0 0.0 16.28999089631971 0.0 0.0 0.0 34.185847837958455" Properties=species:S:1:pos:R:3:initial_magmoms:R:1 pbc="T T T"
Si      -1.35736425      -1.35654161       1.35639264       0.00000000
Si       1.35806472       1.35856971       1.35622171       0.00000000
Si       1.36205577      -1.35597471      -1.35803356       0.00000000
Si      -1.35729909       1.35858600      -1.36063169       0.00000000
Si       0.01373247       2.69649999      -2.73070552       0.00000000
Si       0.00032580      -2.71402990       2.71367412       0.00000000
Si      -2.71423980       0.00096111       2.71374249       0.00000000
Si       2.71293545      -2.71506293      -0.00041023       0.00000000
Si       2.71481797       2.71347417      -0.00020512       0.00000000
Si       2.71538880       0.00115659       2.71329807       0.00000000
