10
Lattice="16.28999089631971 0.0 0.0 0.0 16.28999089631971 0.0 0.0 0.0 34.185847837958455" Properties=species:S:1:pos:R:3:initial_magmoms:R:1 pbc="T T T"
Si       1.36204378       1.36402686       1.32733466       0.00000000
Si       1.35346384      -1.35568638      -1.36049495       0.00000000
Si      -1.36232255       1.35910728      -1.35881984       0.00000000
Si      -1.36365833      -1.37653758       1.35799938       0.00000000
Si       2.60527703      -0.10984347       2.60711677       0.00000000
Si      -0.00203803       2.61755865       2.71634062       0.00000000
Si       2.71194395      -2.71156824      -0.00341859       0.00000000
Si       2.71096655       0.00249237      -2.71654573       0.00000000
Si      -2.71745507      -2.71088406      -0.00423905       0.00000000
Si      -0.00387446      -2.71217097      -2.71678503       0.00000000
