10
Lattice="16.28999089631971 0.0 0.0 0.0 16.28999089631971 0.0 0.0 0.0 34.185847837958455" Properties=species:S:1:pos:R:3:initial_magmoms:R:1 pbc="T T T"
Si       1.58452830      -0.23392440      -1.70389198       0.00000000
Si      -1.22727231       1.98451296       0.40359835       0.00000000
Si       1.45811790       0.24887862       1.86808670       0.00000000
Si      -1.25200053      -2.02393476      -0.14822992       0.00000000
Si      -1.20591612      -2.17082169      -2.51197750       0.00000000
Si      -2.03141187       1.41758838       2.52230163       0.00000000
Si       2.87712744      -2.10421188      -1.18050636       0.00000000
Si      -0.03912858       0.78128469       3.68622785       0.00000000
Si       2.88733312       2.08639062       1.32083934       0.00000000
Si      -3.55421736      -1.50188913       0.07291845       0.00000000
