10
Lattice="16.28999089631971 0.0 0.0 0.0 16.28999089631971 0.0 0.0 0.0 34.185847837958455" Properties=species:S:1:pos:R:3:initial_magmoms:R:1 pbc="T T T"
Si      -1.34996533      -1.35303111       1.33092417       0.00000000
Si       1.35552348      -1.35653346      -1.35557218       0.00000000
Si      -1.35926529       1.35630540      -1.35543544       0.00000000
Si       1.34838846       1.36746405       1.36353749       0.00000000
Si       2.65500936      -0.07099182       2.67042900       0.00000000
Si      -0.00104256      -2.71456560      -2.71295621       0.00000000
Si       2.71454931       0.00071676      -2.71302459       0.00000000
Si      -2.71526355       0.00021177      -2.71251180       0.00000000
Si      -0.00110772       2.71567332      -2.71254598       0.00000000
Si       2.71565703       2.71272483       0.00413649       0.00000000
