10
Lattice="16.28999089631971 0.0 0.0 0.0 16.28999089631971 0.0 0.0 0.0 34.185847837958455" Properties=species:S:1:pos:R:3:initial_magmoms:R:1 pbc="T T T"
Si       1.31206176      -1.27198836      -1.46209534       0.00000000
Si       1.85342733       0.92483217       1.11695483       0.00000000
Si      -1.38631158       1.46186460      -1.43819942       0.00000000
Si      -1.29552741      -1.47471741       1.53836401       0.00000000
Si       2.52112185      -2.79336033      -0.07131172       0.00000000
Si       3.50824602      -0.92721051       1.03733595       0.00000000
Si       2.67368207       2.72210787      -0.10375411       0.00000000
Si      -2.46899385       0.02166570       2.91684073       0.00000000
Si      -0.04173498      -2.60633484      -2.82433377       0.00000000
Si      -2.81738808      -2.64399732       0.04878323       0.00000000
