10
Lattice="16.28999089631971 0.0 0.0 0.0 16.28999089631971 0.0 0.0 0.0 34.185847837958455" Properties=species:S:1:pos:R:3:initial_magmoms:R:1 pbc="T T T"
Si      -1.96336854       0.52497783       1.12857803       0.00000000
Si       0.61746986      -1.57038858      -1.62399961       0.00000000
Si       1.15097714       2.04729462       0.16569890       0.00000000
Si       0.79752160      -1.30461723       1.79927055       0.00000000
Si       2.81146571      -0.49124124      -2.12882231       0.00000000
Si      -1.18674279       1.27692423       3.25435779       0.00000000
Si      -3.31708383      -1.40649489       0.88202955       0.00000000
Si       0.88189403       0.12973356       3.64992246       0.00000000
Si      -0.72246150      -1.08129762      -3.56644057       0.00000000
Si       3.15591776       1.78789266       1.31554053       0.00000000
