10
Lattice="16.28999089631971 0.0 0.0 0.0 16.28999089631971 0.0 0.0 0.0 34.185847837958455" Properties=species:S:1:pos:R:3:initial_magmoms:R:1 pbc="T T T"
Si       0.48425283      -0.78768666      -2.20372354       0.00000000
Si       0.00366525      -1.81149687       1.64591275       0.00000000
Si       2.32493716       0.80027883       0.17735628       0.00000000
Si      -0.72558918       2.31645429       0.43111797       0.00000000
Si      -1.99024704      -1.70090406      -0.70880977       0.00000000
Si      -1.40449122       1.87248663       2.63617476       0.00000000
Si       0.53292735      -3.49663221       0.00546974       0.00000000
Si       1.59510118      -2.87839413      -2.06595450       0.00000000
Si      -2.90369250       0.06177168       2.76532896       0.00000000
Si       1.48452629       0.73764378      -3.68062136       0.00000000
