10
Lattice="16.28999089631971 0.0 0.0 0.0 16.28999089631971 0.0 0.0 0.0 34.185847837958455" Properties=species:S:1:pos:R:3:initial_magmoms:R:1 pbc="T T T"
Si       1.69492563      -0.59592078      -1.61261572       0.00000000
Si       1.31092146      -1.02156219       1.79817660       0.00000000
Si      -2.19399584      -1.07914734       0.50482270       0.00000000
Si      -0.96774003       2.16262782      -1.36524678       0.00000000
Si      -0.10635741      -1.52018280      -2.76755104       0.00000000
Si      -1.87910852      -2.44209906      -1.51723715       0.00000000
Si      -2.81146571       0.49124124       2.12882231       0.00000000
Si       2.11851450       0.85256973       2.98746873       0.00000000
Si      -1.66048857       2.53853586       2.29452120       0.00000000
Si      -3.53392721      -0.59005638      -1.43761826       0.00000000
