10
Lattice="16.28999089631971 0.0 0.0 0.0 16.28999089631971 0.0 0.0 0.0 34.185847837958455" Properties=species:S:1:pos:R:3:initial_magmoms:R:1 pbc="T T T"
Si      -0.22801113       1.10011257       2.05213627       0.00000000
Si      -1.75431897      -0.18279009      -1.68621789       0.00000000
Si       1.69246584      -1.87651026       0.06614965       0.00000000
Si       1.55668869       2.13496740      -0.19198783       0.00000000
Si       2.39981022       0.93128301      -2.04479345       0.00000000
Si      -1.15698096      -0.75378717       3.22298341       0.00000000
Si      -2.06736390       2.08116153      -1.95939715       0.00000000
Si       3.44466452      -1.01128320      -1.24381858       0.00000000
Si      -0.65361996      -0.58728708      -3.73152412       0.00000000
Si      -2.96950410      -1.76344137       1.95139766       0.00000000
