10
Lattice="16.28999089631971 0.0 0.0 0.0 16.28999089631971 0.0 0.0 0.0 34.185847837958455" Properties=species:S:1:pos:R:3:initial_magmoms:R:1 pbc="T T T"
Si       1.77275110       0.92191626      -1.25031390       0.00000000
Si      -0.98712417      -1.86614982      -1.10864766       0.00000000
Si      -0.31488733       1.36295172       2.02205984       0.00000000
Si      -1.65481869       1.85204268       0.07961888       0.00000000
Si      -1.43764041      -0.69159195       2.42059868       0.00000000
Si      -2.19618426      -0.34477785      -2.49943129       0.00000000
Si       1.87910852       2.44209906       1.51723715       0.00000000
Si       0.52951785       2.39578659      -2.53009601       0.00000000
Si      -3.50824602       0.92721051      -1.03733595       0.00000000
Si      -0.14504127      -2.56187943       2.94398430       0.00000000
