10
Lattice="16.28999089631971 0.0 0.0 0.0 16.28999089631971 0.0 0.0 0.0 34.185847837958455" Properties=species:S:1:pos:R:3:initial_magmoms:R:1 pbc="T T T"
Si      -1.30228776      -0.58687983       1.93786005       0.00000000
Si       0.85952556       1.74390966      -1.50995556       0.00000000
Si      -0.28869138       1.54300509       2.28771822       0.00000000
Si      -0.81651996       0.64265679      -2.85000736       0.00000000
Si      -0.33352146       3.12748452      -0.04187769       0.00000000
Si      -2.73443940      -0.19740222      -1.73076207       0.00000000
Si       1.91677914       1.07479791       2.96941859       0.00000000
Si       3.00259628      -0.80417214       1.99611277       0.00000000
Si      -0.11174940      -2.32648893       2.95899190       0.00000000
Si       1.85161914      -2.85146676       1.83041387       0.00000000
