10
Lattice="16.28999089631971 0.0 0.0 0.0 16.28999089631971 0.0 0.0 0.0 34.185847837958455" Properties=species:S:1:pos:R:3:initial_magmoms:R:1 pbc="T T T"
Si       1.33913574       1.36492281       1.35926426       0.00000000
Si       1.35441576      -1.35786924      -1.35670032       0.00000000
Si      -1.35855342       1.35604476      -1.35724729       0.00000000
Si      -1.34770428      -1.36604682       1.36186238       0.00000000
Si      -0.15910443       2.58937695       2.70587974       0.00000000
Si       2.63814921      -0.08957871       2.67042900       0.00000000
Si       2.71407682       0.00037467      -2.71449458       0.00000000
Si      -0.00105885      -2.71480995      -2.71432365       0.00000000
Si      -0.00100998       2.71530397      -2.71422109       0.00000000
Si      -2.71210581      -2.71801908       0.00099139       0.00000000
