10
Lattice="16.28999089631971 0.0 0.0 0.0 16.28999089631971 0.0 0.0 0.0 34.185847837958455" Properties=species:S:1:pos:R:3:initial_magmoms:R:1 pbc="T T T"
Si      -1.01543715       1.66866615       1.25865525       0.00000000
Si      -1.49038839      -1.20581838      -1.38562156       0.00000000
Si       1.13624379       1.57804488      -1.46954786       0.00000000
Si       1.72830384      -1.27812969       1.45795885       0.00000000
Si       3.32584785       0.76046607       1.18754865       0.00000000
Si      -1.19620728       0.07690509       3.42173179       0.00000000
Si      -0.05235606      -2.37737889      -2.81356522       0.00000000
Si       2.55665034       2.73132216       0.02157128       0.00000000
Si       0.61771680       3.47108039       1.29670412       0.00000000
Si      -2.50250238      -2.88393273       0.06232084       0.00000000
