10
Lattice="16.28999089631971 0.0 0.0 0.0 16.28999089631971 0.0 0.0 0.0 34.185847837958455" Properties=species:S:1:pos:R:3:initial_magmoms:R:1 pbc="T T T"
Si       1.43696438      -1.27641924      -1.30569500       0.00000000
Si       1.38597831       1.17538866       1.47378691       0.00000000
Si      -1.29901347       1.45450152      -1.31116474       0.00000000
Si      -1.01214657      -1.56079377       1.49487959       0.00000000
Si      -0.60764958       1.86137685       2.69254725       0.00000000
Si      -2.20519359      -0.17721891       2.96295746       0.00000000
Si       0.07923456      -2.62449819      -2.66861715       0.00000000
Si      -2.63814921       0.08957871      -2.67042900       0.00000000
Si      -2.68819209      -2.66204664       0.15482779       0.00000000
Si       2.79164078       0.09047466      -2.66936923       0.00000000
