10
Lattice="16.28999089631971 0.0 0.0 0.0 16.28999089631971 0.0 0.0 0.0 34.185847837958455" Properties=species:S:1:pos:R:3:initial_magmoms:R:1 pbc="T T T"
Si      -0.03500721      -1.97351721      -1.21838430       0.00000000
Si       1.39457061       1.60756236      -0.99053549       0.00000000
Si       1.42886106      -0.86897376       1.76173447       0.00000000
Si      -2.34859446       0.73464642      -0.04898835       0.00000000
Si       3.53015118       0.01347183       1.06536836       0.00000000
Si       0.29584269      -0.22807629       3.72027697       0.00000000
Si      -1.17524205      -1.45911159      -3.25022130       0.00000000
Si      -0.85336794      -3.73715406       0.34678143       0.00000000
Si       3.07722891       2.28768615       0.58700552       0.00000000
Si      -3.72317724      -1.18566765       0.33850845       0.00000000
