10
Lattice="16.28999089631971 0.0 0.0 0.0 16.28999089631971 0.0 0.0 0.0 34.185847837958455" Properties=species:S:1:pos:R:3:initial_magmoms:R:1 pbc="T T T"
Si      -0.08437243      -1.43435079      -1.85065191       0.00000000
Si      -1.00027346      -1.52533044       1.47689782       0.00000000
Si      -2.06863682       1.14719067      -0.39556467       0.00000000
Si       1.88689188       1.55051478      -0.05452646       0.00000000
Si       0.78641441       3.32371386       0.97265629       0.00000000
Si      -1.19225111       3.34272429      -0.22733602       0.00000000
Si       2.27402373       1.65815910      -2.33438192       0.00000000
Si      -0.88189403      -0.12973356      -3.64992246       0.00000000
Si      -2.84526257       0.39524427      -2.52134443       0.00000000
Si      -1.51358765      -3.27186279      -1.30340455       0.00000000
