10
Lattice="16.28999089631971 0.0 0.0 0.0 16.28999089631971 0.0 0.0 0.0 34.185847837958455" Properties=species:S:1:pos:R:3:initial_magmoms:R:1 pbc="T T T"
Si      -1.97866552       0.01901043      -1.19999230       0.00000000
Si       1.10047747      -1.77319908      -1.02718274       0.00000000
Si       0.17403259      -0.88800048       2.17463137       0.00000000
Si       0.55293799       2.32450155       0.08980627       0.00000000
Si       2.18011351       0.17552475       2.79452369       0.00000000
Si      -0.78641441      -3.32371386      -0.97265629       0.00000000
Si      -3.61636438       1.18532556      -0.03900607       0.00000000
Si      -2.85505123      -2.17652319      -1.36822095       0.00000000
Si       2.86525462       2.57220729      -0.15564825       0.00000000
Si      -1.60314844       0.47281725      -3.48357403       0.00000000
