10
Lattice="16.28999089631971 0.0 0.0 0.0 16.28999089631971 0.0 0.0 0.0 34.185847837958455" Properties=species:S:1:pos:R:3:initial_magmoms:R:1 pbc="T T T"
Si      -1.57726526       1.47092184       1.01302980       0.00000000
Si       1.63599330       1.80009387      -0.06016713       0.00000000
Si       0.58286923      -2.17394937       0.97248536       0.00000000
Si      -0.88841343      -0.56928663      -2.24676355       0.00000000
Si      -2.72735555       2.29838868      -0.94058994       0.00000000
Si       2.31595419       1.77275925      -2.27561642       0.00000000
Si      -1.59433718       1.65749121      -2.89913245       0.00000000
Si      -3.11015426       0.05696613       2.04899831       0.00000000
Si      -1.56304409      -3.11339367       1.31977958       0.00000000
Si       1.51345992      -3.54574656      -0.75355907       0.00000000
