10
Lattice="16.28999089631971 0.0 0.0 0.0 16.28999089631971 0.0 0.0 0.0 34.185847837958455" Properties=species:S:1:pos:R:3:initial_magmoms:R:1 pbc="T T T"
Si      -1.34926812      -1.35148356      -1.38148507       0.00000000
Si       1.36575360       1.36300059      -1.37912624       0.00000000
Si       1.33467228      -1.40960628       1.40127869       0.00000000
Si      -1.22233644       1.34428338       1.60564180       0.00000000
Si       0.79679277       2.14522100       2.86826261       0.00000000
Si       2.30733189       0.15483645       2.86368170       0.00000000
Si      -2.68606625       2.70611991       0.00629020       0.00000000
Si      -2.70394452      -2.71837746      -0.01781084       0.00000000
Si       2.72973159      -2.71153566      -0.00283743       0.00000000
Si       0.00700470      -2.70935280      -2.73818538       0.00000000
