10
Lattice="16.28999089631971 0.0 0.0 0.0 16.28999089631971 0.0 0.0 0.0 34.185847837958455" Properties=species:S:1:pos:R:3:initial_magmoms:R:1 pbc="T T T"
Si      -1.35623285      -1.35529542      -1.35680287       0.00000000
Si      -1.35194850       1.35690864       1.36193075       0.00000000
Si       1.35948032      -1.35477414       1.35875147       0.00000000
Si       1.35891017       1.35946973      -1.35629009       0.00000000
Si       0.00109143      -2.71324611      -2.71394760       0.00000000
Si      -2.71395540       0.00171045      -2.71377668       0.00000000
Si       2.71575314      -2.71264338       0.00205115       0.00000000
Si      -2.71589391      -2.71353933       0.00099139       0.00000000
Si       2.71633958       0.00236205      -2.71370830       0.00000000
Si       2.71405898       2.71610730       0.00092302       0.00000000
