10
Lattice="16.28999089631971 0.0 0.0 0.0 16.28999089631971 0.0 0.0 0.0 34.185847837958455" Properties=species:S:1:pos:R:3:initial_magmoms:R:1 pbc="T T T"
Si       0.38167470       2.23914914       0.52796653       0.00000000
Si       2.13574932      -1.03177602       0.48824255       0.00000000
Si      -2.18653502      -0.78237612       0.80292346       0.00000000
Si      -1.16988264      -2.55252897      -2.12482256       0.00000000
Si       1.81923462       2.60725427      -1.51484414       0.00000000
Si       1.34500014      -2.73261492       1.93215101       0.00000000
Si      -1.79124840       3.10475087       0.86493662       0.00000000
Si      -2.16186382      -3.00434841       0.04307419       0.00000000
Si       1.12493853       1.31151509      -3.50866645       0.00000000
Si      -3.04550021       2.36293685      -0.95587103       0.00000000
