10
Lattice="16.2900001489832 0.0 0.0 0.0 16.2900001489832 0.0 0.0 0.0 28.96283823314758" Properties=species:S:1:pos:R:3:initial_magmoms:R:1 pbc="T T T"
Si      -1.30161988      -1.74049529      -0.92069966       0.00000000
Si       0.50031477       0.54796303      -2.28942547       0.00000000
Si      -1.33356457       2.01065843      -0.10901612       0.00000000
Si       1.90472456      -0.67600243       1.46036423       0.00000000
Si       0.01441665       3.17366670       1.36215125       0.00000000
Si      -1.16597305       2.21493503      -2.39241733       0.00000000
Si      -0.46806057      -1.42247051      -3.16673881       0.00000000
Si      -2.00350712      -0.32757561       2.95803259       0.00000000
Si      -1.07118154      -3.34941951       0.83175479       0.00000000
Si      -0.54343440      -2.25316766       2.86451159       0.00000000
