10
Lattice="16.2900001489832 0.0 0.0 0.0 16.2900001489832 0.0 0.0 0.0 28.96283823314758" Properties=species:S:1:pos:R:3:initial_magmoms:R:1 pbc="T T T"
Si      -1.39964984       1.38417907       1.29562361       0.00000000
Si       1.28707617       1.39515951      -1.41455950       0.00000000
Si      -1.31708887      -1.35260758      -1.43029501       0.00000000
Si       1.31452482      -1.28606293       1.52842690       0.00000000
Si       2.66674144      -0.08915517      -2.68138536       0.00000000
Si       2.70147172      -2.66154167       0.18148114       0.00000000
Si      -2.75220856      -0.00013032       2.65154784       0.00000000
Si      -2.66974858      -2.73455346      -0.03898398       0.00000000
Si      -0.03019352       2.73349623       2.67471811       0.00000000
Si       2.69948434       2.73607983      -0.04017146       0.00000000
