10
Lattice="16.2900001489832 0.0 0.0 0.0 16.2900001489832 0.0 0.0 0.0 28.96283823314758" Properties=species:S:1:pos:R:3:initial_magmoms:R:1 pbc="T T T"
Si      -0.80353684      -1.37916028      -1.72282547       0.00000000
Si       1.97641685       1.09076212      -0.70686703       0.00000000
Si      -1.78834880       1.55365876       0.10403451       0.00000000
Si       1.40277915      -1.47514096       1.22495428       0.00000000
Si       1.60033450       2.83623564       0.77492970       0.00000000
Si       0.64704206       1.87341518       2.78095380       0.00000000
Si       1.24705001      -2.49803894      -1.96915441       0.00000000
Si      -3.18878382       0.13247028       1.30590541       0.00000000
H       -2.39091590      -0.03818376       2.59362216       0.00000000
Si       1.52719403       1.02871351      -3.04859939       0.00000000
