10
Lattice="16.2900001489832 0.0 0.0 0.0 16.2900001489832 0.0 0.0 0.0 28.96283823314758" Properties=species:S:1:pos:R:3:initial_magmoms:R:1 pbc="T T T"
Si       1.31085631      -0.26839404      -1.92717712       0.00000000
Si       1.78960313       0.68429404       1.42536988       0.00000000
Si      -0.78195259      -1.95465341       1.13713751       0.00000000
Si      -1.74363275       1.72874369       0.16866943       0.00000000
Si      -2.15865308      -0.76334941       2.64342521       0.00000000
Si       0.62330428       2.11429541       2.80587198       0.00000000
Si       3.01237941       2.26505936       0.26306512       0.00000000
Si      -0.71342056       3.43476282       1.40414012       0.00000000
Si       3.10218618       1.25400421      -1.79403495       0.00000000
Si      -3.49103337       0.66393154       1.36155895       0.00000000
