10
Lattice="16.2900001489832 0.0 0.0 0.0 16.2900001489832 0.0 0.0 0.0 28.96283823314758" Properties=species:S:1:pos:R:3:initial_magmoms:R:1 pbc="T T T"
Si       1.97306762      -1.24307362      -0.00608220       0.00000000
Si       0.46073659       1.93000664      -1.28974415       0.00000000
Si      -1.21029993      -1.12314664      -1.71277536       0.00000000
Si      -0.75956850       0.15889266       2.33449165       0.00000000
Si      -0.93763775       3.34274061      -0.10487444       0.00000000
Si       0.59464039      -1.41403717      -3.26915140       0.00000000
Si       2.67272313      -1.08721090      -2.19981445       0.00000000
Si       2.58656532       2.07472700       1.59524417       0.00000000
Si       3.37628824      -0.18502182       1.51466955       0.00000000
Si      -2.10990688      -3.00425070      -0.59570766       0.00000000
