10
Lattice="16.2900001489832 0.0 0.0 0.0 16.2900001489832 0.0 0.0 0.0 28.96283823314758" Properties=species:S:1:pos:R:3:initial_magmoms:R:1 pbc="T T T"
H       -0.29497932      -0.88457959       1.76409751       0.00000000
Si      -1.70217470      -1.07155621      -1.23422239       0.00000000
Si       1.03708657       1.70587253      -1.28962830       0.00000000
Si      -1.51040881       1.43707123       1.23384587       0.00000000
Si       1.76114450      -1.80610490      -0.05424740       0.00000000
H       -2.44415162       0.48907467       1.98328827       0.00000000
H        2.07617681       0.36342990       2.80594873       0.00000000
Si      -0.65314756      -1.38258118       3.17719439       0.00000000
H        2.25013772      -2.46093032       1.21803216       0.00000000
Si       2.38674566       0.41148540      -2.68688250       0.00000000
