10
Lattice="16.2900001489832 0.0 0.0 0.0 16.2900001489832 0.0 0.0 0.0 28.96283823314758" Properties=species:S:1:pos:R:3:initial_magmoms:R:1 pbc="T T T"
Si      -1.90634541      -1.14990622       0.66423373       0.00000000
Si       1.50311089      -1.44723619      -1.12624893       0.00000000
Si      -0.55724833       1.56647899      -1.69392056       0.00000000
Si       0.90743446       1.06494247       1.93628159       0.00000000
Si       1.40343238       2.83872801      -1.45871335       0.00000000
Si       1.36611199       3.10290294       0.89547303       0.00000000
Si      -1.66382478      -0.89977327       2.96967566       0.00000000
Si      -1.05644072       0.23907204      -3.58229761       0.00000000
Si       0.17519895      -2.95495716      -2.37796487       0.00000000
Si      -3.80713593       0.06781527      -0.01091899       0.00000000
