10
Lattice="16.2900001489832 0.0 0.0 0.0 16.2900001489832 0.0 0.0 0.0 28.96283823314758" Properties=species:S:1:pos:R:3:initial_magmoms:R:1 pbc="T T T"
Si       0.38789748      -0.47254032      -2.27030508       0.00000000
Si       1.83630656       0.91256581       1.23208696       0.00000000
Si      -0.84413152      -1.75844036       1.40242610       0.00000000
Si      -1.75159856       1.73258813      -0.15835090       0.00000000
H        1.89553700      -1.76770937       0.08136241       0.00000000
Si       0.54159363       2.25401474       2.70865879       0.00000000
Si      -2.23749668      -0.48311253       2.78087184       0.00000000
Si      -1.85831435      -0.98028334      -3.05737021       0.00000000
Si      -3.45891600       0.75654019       1.19195026       0.00000000
Si       0.97699276       1.62381979      -3.24250067       0.00000000
