10
Lattice="16.2900001489832 0.0 0.0 0.0 16.2900001489832 0.0 0.0 0.0 28.96283823314758" Properties=species:S:1:pos:R:3:initial_magmoms:R:1 pbc="T T T"
Si      -0.72270586       0.93310750       2.01989730       0.00000000
Si      -1.48546882      -1.22039794      -1.37263579       0.00000000
Si       1.25439517       1.50263734      -1.32852539       0.00000000
Si       1.38530161      -1.50228010       1.19691825       0.00000000
Si      -1.44326143      -1.12239730       3.01923107       0.00000000
Si       2.64966626       0.01241298       2.50916653       0.00000000
Si      -0.12061116      -2.54488898      -2.77898433       0.00000000
H       -3.56110806       0.07724718       1.24713981       0.00000000
Si       2.73072530      -2.61105896      -0.28904913       0.00000000
Si       1.18690570       1.75633406       3.14429261       0.00000000
