10
Lattice="16.2900001489832 0.0 0.0 0.0 16.2900001489832 0.0 0.0 0.0 28.96283823314758" Properties=species:S:1:pos:R:3:initial_magmoms:R:1 pbc="T T T"
Si      -1.27457799      -1.34796167      -1.43153172       0.00000000
Si      -1.40887650       1.31074717       1.34402340       0.00000000
Si       1.41800868       1.27370371      -1.41461743       0.00000000
Si       1.37938508      -1.49587080       1.30176373       0.00000000
Si       0.63315647      -1.61588168      -2.93658561       0.00000000
Si       2.65844332      -0.39360224      -2.50993404       0.00000000
Si      -0.02703326       2.56110242       2.79915695       0.00000000
Si      -2.70406183      -0.12594125       2.68133612       0.00000000
Si       2.70669430       2.70205979      -0.06105077       0.00000000
Si      -2.56281124      -2.86082865      -0.11640744       0.00000000
