10
Lattice="16.2900001489832 0.0 0.0 0.0 16.2900001489832 0.0 0.0 0.0 28.96283823314758" Properties=species:S:1:pos:R:3:initial_magmoms:R:1 pbc="T T T"
Si      -1.33954300       1.24495186       1.53852624       0.00000000
Si      -1.19105965      -1.49142608      -1.47971720       0.00000000
Si       1.46249992      -1.37608994       1.34289675       0.00000000
Si       0.73902844       2.01988346      -1.10175071       0.00000000
Si      -2.71433756       2.55079085       0.08473947       0.00000000
Si      -2.56872125      -2.82240054      -0.01183132       0.00000000
Si       2.62909199       2.78414510       0.18447880       0.00000000
Si       0.12127905      -2.74174875       2.78019498       0.00000000
Si       1.46857609       1.60719259      -3.26611610       0.00000000
Si       0.04577490       2.57577971       3.00309298       0.00000000
