10
Lattice="16.2900001489832 0.0 0.0 0.0 16.2900001489832 0.0 0.0 0.0 28.96283823314758" Properties=species:S:1:pos:R:3:initial_magmoms:R:1 pbc="T T T"
H        0.66749905       1.54968400       0.02696440       0.00000000
Si       1.91334197      -1.30285792      -0.25461231       0.00000000
Si      -0.98626177       0.57216997      -2.06893139       0.00000000
Si      -0.53545230       0.25881552       2.35404157       0.00000000
Si      -2.12455811       2.14060376      -0.66880986       0.00000000
H       -2.16228575      -2.29630358       0.30732468       0.00000000
Si       2.13451130       2.37130274      -0.02154835       0.00000000
Si       2.17329779      -2.07524828       1.93405145       0.00000000
Si       3.55760408       0.40314492      -0.28386478       0.00000000
H       -3.58251312      -0.48534426       0.42699912       0.00000000
