10
Lattice="16.2900001489832 0.0 0.0 0.0 16.2900001489832 0.0 0.0 0.0 28.96283823314758" Properties=species:S:1:pos:R:3:initial_magmoms:R:1 pbc="T T T"
Si      -1.36651436      -1.35744408       1.33808313       0.00000000
Si      -1.45566301       1.36119241      -1.25380127       0.00000000
Si       1.36316350      -1.35486049      -1.37680644       0.00000000
Si       1.38274408       1.35492076       1.37816769       0.00000000
Si      -0.09863595       2.69345378      -2.60772127       0.00000000
Si       2.70203861      -2.63735412       0.15347408       0.00000000
Si       2.68136660       2.69630453      -0.05149593       0.00000000
Si      -2.72342738       2.68286528       0.22816924       0.00000000
Si      -2.73597068      -2.70676125      -0.04101138       0.00000000
Si      -0.04924467      -2.69578081      -2.75119449       0.00000000
