10
Lattice="16.2900001489832 0.0 0.0 0.0 16.2900001489832 0.0 0.0 0.0 28.96283823314758" Properties=species:S:1:pos:R:3:initial_magmoms:R:1 pbc="T T T"
Si      -1.62864163      -1.14888484       1.25763797       0.00000000
Si       1.17851635       1.55383795       1.37388612       0.00000000
Si       1.82472437      -1.67979224       0.07114779       0.00000000
Si      -1.14497524       0.99355969      -2.01330912       0.00000000
Si      -0.25384707      -2.45472383       2.71142474       0.00000000
Si       2.87528277       2.47884932      -0.01070669       0.00000000
Si       0.37120023       2.70793559      -2.68414638       0.00000000
Si       2.48588660       0.32078268       2.91234285       0.00000000
Si       2.55427202      -2.09248310      -2.09321760       0.00000000
Si      -2.95456620      -2.56020158      -0.18210471       0.00000000
