10
Lattice="16.2900001489832 0.0 0.0 0.0 16.2900001489832 0.0 0.0 0.0 28.96283823314758" Properties=species:S:1:pos:R:3:initial_magmoms:R:1 pbc="T T T"
Si       1.26757508      -1.29075282      -1.52944060       0.00000000
Si      -1.00506401      -1.75391662       1.25475704       0.00000000
Si       1.82141391       0.91318483       1.25327994       0.00000000
Si      -1.46678778       1.41046966      -1.25797192       0.00000000
H       -0.31684409       2.87287185       1.70266733       0.00000000
Si       2.56492210      -2.53845671       0.00790685       0.00000000
Si       0.70401276      -3.43924257       1.18872177       0.00000000
Si      -0.08933794       2.74955655      -2.63935449       0.00000000
Si       3.55102097      -0.81717157       1.31647685       0.00000000
Si      -2.72836684      -2.75108781      -0.02728299       0.00000000
