10
Lattice="16.2900001489832 0.0 0.0 0.0 16.2900001489832 0.0 0.0 0.0 28.96283823314758" Properties=species:S:1:pos:R:3:initial_magmoms:R:1 pbc="T T T"
Si       0.63485389      -0.97322977       2.00402567       0.00000000
Si      -1.46276056       1.74392108       0.63512608       0.00000000
Si      -1.26436465      -1.51469308      -1.31224827       0.00000000
Si       2.40241664       0.04408074      -0.42665157       0.00000000
Si       2.26022123      -2.05205132       0.70750421       0.00000000
H        1.24901947       1.94591056      -2.15014318       0.00000000
Si      -3.37237212       0.92069452      -0.48926923       0.00000000
Si       0.73034587       1.01840194       3.33368061       0.00000000
Si      -2.64966626      -0.01241298      -2.50916653       0.00000000
Si      -1.61225389       1.41037192       3.03214850       0.00000000
