10
Lattice="16.2900001489832 0.0 0.0 0.0 16.2900001489832 0.0 0.0 0.0 28.96283823314758" Properties=species:S:1:pos:R:3:initial_magmoms:R:1 pbc="T T T"
Si       0.44499393      -1.39426111       0.43730989       0.00000000
Si      -0.00136836       1.72822241      -1.41570353       0.00000000
Si      -1.81732382       0.31745952      -2.13629895       0.00000000
Si      -2.21787375       1.12651867       1.33776454       0.00000000
Si      -2.77061626      -0.64536094      -0.13027485       0.00000000
Si       0.40767354      -1.13008618       2.79149627       0.00000000
Si      -1.51568677      -2.66651012       0.20210269       0.00000000
Si      -1.32815629       2.88958539       0.06087989       0.00000000
Si       2.01341144      -2.16788951      -1.17258947       0.00000000
Si       2.29739501       2.25003998      -0.82932191       0.00000000
