10
Lattice="16.2900001489832 0.0 0.0 0.0 16.2900001489832 0.0 0.0 0.0 28.96283823314758" Properties=species:S:1:pos:R:3:initial_magmoms:R:1 pbc="T T T"
Si       0.98626177      -0.57216997       2.06893139       0.00000000
Si      -1.13829634       1.56843379       1.40012153       0.00000000
Si       1.51273828       1.17770185      -1.44982176       0.00000000
Si      -1.15196365      -1.48237372      -1.50288168       0.00000000
H        1.65376082       0.97751404       2.09589579       0.00000000
Si      -2.29750904       2.43781481      -0.42288640       0.00000000
H       -2.47994075       1.20200653       2.02018693       0.00000000
H       -2.68003082      -0.28518903       2.39942633       0.00000000
H       -2.59625135      -1.05751423       2.49593051       0.00000000
Si       2.52470567       2.88328116      -0.13401105       0.00000000
