10
Lattice="16.2900001489832 0.0 0.0 0.0 16.2900001489832 0.0 0.0 0.0 28.96283823314758" Properties=species:S:1:pos:R:3:initial_magmoms:R:1 pbc="T T T"
Si      -1.35405739      -0.57151674      -1.77513236       0.00000000
Si      -1.22564332       1.71937368       0.99498934       0.00000000
Si       0.62949448      -1.64666163       1.59634475       0.00000000
Si       1.67731616       1.31717357      -1.06641170       0.00000000
H        1.66542446       1.01432618      -2.55067027       0.00000000
Si       0.37069524       1.91221470       2.71778585       0.00000000
Si       1.77072302      -0.05473440       2.91907758       0.00000000
Si      -1.42358311       3.16504603      -0.90262685       0.00000000
Si       3.57810668       0.09945208      -0.39125898       0.00000000
Si      -2.45729765       1.45348830      -2.26645794       0.00000000
