10
Lattice="16.2900001489832 0.0 0.0 0.0 16.2900001489832 0.0 0.0 0.0 28.96283823314758" Properties=species:S:1:pos:R:3:initial_magmoms:R:1 pbc="T T T"
Si      -0.36118188      -0.09736533       2.26341685       0.00000000
Si      -1.96762025      -0.20522142      -1.23178951       0.00000000
Si       1.42227991      -1.86325022      -0.49706023       0.00000000
Si       0.72055558       2.05550480      -0.99933377       0.00000000
H       -2.11784663       1.19964448      -1.77209126       0.00000000
Si       2.82856305      -0.37988280      -1.82231282       0.00000000
Si       1.44326143       1.12239730      -3.01923107       0.00000000
Si      -1.28726839      -1.59127237      -3.03313323       0.00000000
Si       1.68301766       0.29416482       3.25831930       0.00000000
Si      -1.46748466      -2.12664323       2.66753533       0.00000000
