10
Lattice="16.2900001489832 0.0 0.0 0.0 16.2900001489832 0.0 0.0 0.0 28.96283823314758" Properties=species:S:1:pos:R:3:initial_magmoms:R:1 pbc="T T T"
Si      -0.48899322       0.65482543      -1.27227956       0.00000000
H        1.33004593       0.24107571       1.56474630       0.00000000
H        1.40755375      -1.84770956      -0.62519183       0.00000000
H       -0.09018144       2.05203503       1.68442075       0.00000000
Si       0.72169588      -0.08555508       2.90146817       0.00000000
H       -2.54511704       1.57635073       0.54606535       0.00000000
Si      -1.41426523      -1.14293899      -2.47971132       0.00000000
Si       1.35410626       1.62717553      -2.31439144       0.00000000
Si      -1.56015847      -0.70999966       2.67581870       0.00000000
H       -0.17396091       2.82436023       1.58791657       0.00000000
