10
Lattice="16.2900001489832 0.0 0.0 0.0 16.2900001489832 0.0 0.0 0.0 28.96283823314758" Properties=species:S:1:pos:R:3:initial_magmoms:R:1 pbc="T T T"
Si       1.33939639       1.38857590       1.35195053       0.00000000
Si      -1.35060391       1.30792411      -1.44007576       0.00000000
Si      -1.38061009      -1.28607922       1.44266214       0.00000000
Si       1.42047172      -1.38649078      -1.31650871       0.00000000
Si       0.00742824      -2.81857728      -2.54226236       0.00000000
Si      -2.72191241       2.64873773       0.04657804       0.00000000
Si       2.69254154      -0.03518640       2.69041018       0.00000000
Si       0.01304829      -2.70461243       2.71563681       0.00000000
Si       2.68061726       2.75423471      -0.08534769       0.00000000
Si      -2.70034445      -0.18855675      -2.74313413       0.00000000
