10
Lattice="16.2900001489832 0.0 0.0 0.0 16.2900001489832 0.0 0.0 0.0 28.96283823314758" Properties=species:S:1:pos:R:3:initial_magmoms:R:1 pbc="T T T"
Si       1.96068071       1.27224901       0.23520721       0.00000000
Si      -0.49919239      -1.32740695      -1.88837705       0.00000000
Si       0.55724833      -1.56647899       1.69392056       0.00000000
Si      -1.25492948       2.02114919      -0.33237753       0.00000000
H        1.51568677       2.66651012      -0.20210269       0.00000000
Si       1.92336032       1.53642394       2.58939359       0.00000000
Si      -1.90197155       0.14773401      -3.11333133       0.00000000
Si       2.06035922      -3.01371519       0.56767163       0.00000000
H       -3.26177931      -1.80151112       0.19874300       0.00000000
Si      -0.30163705       2.98396965      -2.33840163       0.00000000
