10
Lattice="16.2900001489832 0.0 0.0 0.0 16.2900001489832 0.0 0.0 0.0 28.96283823314758" Properties=species:S:1:pos:R:3:initial_magmoms:R:1 pbc="T T T"
Si       1.27392688      -1.27329157      -1.52532788       0.00000000
Si       1.72330283       0.99717118       1.28204003       0.00000000
Si      -0.88404202      -1.77277556       1.33058175       0.00000000
Si      -1.39769830       1.39688380      -1.34541072       0.00000000
H       -2.79885009       0.60623724       1.80383453       0.00000000
Si       2.53159634      -2.53086329       0.04411040       0.00000000
Si      -2.62189181      -2.55937079      -0.10244156       0.00000000
Si       3.43237959      -0.68815477       1.21600476       0.00000000
Si       2.72836684       2.75108781       0.02728299       0.00000000
Si      -0.05012433       2.79138927      -2.68954708       0.00000000
