10
Lattice="16.2900001489832 0.0 0.0 0.0 16.2900001489832 0.0 0.0 0.0 28.96283823314758" Properties=species:S:1:pos:R:3:initial_magmoms:R:1 pbc="T T T"
Si      -1.72330283      -0.99717118      -1.28204003       0.00000000
Si       1.00506401       1.75391662      -1.25475704       0.00000000
Si      -0.70576426       0.65255134       2.18617296       0.00000000
Si       1.70907677      -1.68532595      -0.06603527       0.00000000
H        2.03223779      -2.16169442       1.33536062       0.00000000
Si       2.27263910       0.46316380      -2.78419764       0.00000000
Si      -0.44937594      -2.27046275      -2.80736791       0.00000000
Si      -2.60734484      -2.76994674       0.04854172       0.00000000
Si       0.80829352      -3.52803448      -1.23792963       0.00000000
Si       3.56998611      -0.78454009      -1.24685019       0.00000000
