10
Lattice="16.2900001489832 0.0 0.0 0.0 16.2900001489832 0.0 0.0 0.0 28.96283823314758" Properties=species:S:1:pos:R:3:initial_magmoms:R:1 pbc="T T T"
Si       0.16759152       0.20427660      -2.28340120       0.00000000
Si       1.34798122       1.16300827       1.47116737       0.00000000
Si      -2.20965055       0.59658868       0.49929037       0.00000000
Si       1.33356457      -2.01065843       0.10901612       0.00000000
Si       1.83387935      -1.46269540      -2.18040935       0.00000000
Si       0.45963864      -0.21708054       3.22573611       0.00000000
Si      -1.76042774       0.65863729       2.84102273       0.00000000
Si      -2.06066873      -0.32641902      -3.00695083       0.00000000
Si       0.03194469      -3.75115372      -0.81168354       0.00000000
Si       0.75320074       2.41056164      -2.90569675       0.00000000
