10
Lattice="16.2900001489832 0.0 0.0 0.0 16.2900001489832 0.0 0.0 0.0 28.96283823314758" Properties=species:S:1:pos:R:3:initial_magmoms:R:1 pbc="T T T"
Si       0.72954766      -0.41269086      -2.16436539       0.00000000
Si       1.89006356       0.76426165       1.28622951       0.00000000
Si      -0.73902844      -2.01988346       1.10175071       0.00000000
Si      -1.82472437       1.67979224      -0.07114779       0.00000000
Si      -2.07857144      -0.77493160       2.64027695       0.00000000
Si       0.66116224       2.00057492       2.84119506       0.00000000
Si      -0.64620802       3.23363019       1.30273833       0.00000000
Si      -3.45336600       0.53090739       1.18649018       0.00000000
Si       2.12957543      -2.37963996      -1.96307366       0.00000000
Si       2.96787513       2.47441844       0.06886436       0.00000000
