10
Lattice="16.2900001489832 0.0 0.0 0.0 16.2900001489832 0.0 0.0 0.0 28.96283823314758" Properties=species:S:1:pos:R:3:initial_magmoms:R:1 pbc="T T T"
H        1.51868413      -0.04342914       0.29420451       0.00000000
Si      -0.58277476       1.13251339       2.01659554       0.00000000
Si      -0.19101654       0.96966226      -2.19738157       0.00000000
Si      -0.79232932      -2.27698364      -0.33443389       0.00000000
H       -1.57670911       1.87040153      -2.10626448       0.00000000
H       -3.18230040       0.90976393      -0.69012651       0.00000000
Si       0.00218286      -0.61501267       3.58809018       0.00000000
Si       0.25642089      -0.87381190      -3.53896920       0.00000000
Si      -0.26042823      -2.92276812      -2.57056774       0.00000000
Si       3.32610852      -1.89706826      -0.80655712       0.00000000
