10
Lattice="16.2900001489832 0.0 0.0 0.0 16.2900001489832 0.0 0.0 0.0 28.96283823314758" Properties=species:S:1:pos:R:3:initial_magmoms:R:1 pbc="T T T"
Si      -2.20156094      -0.57396187       0.20578097       0.00000000
Si       1.22564332      -1.71937368      -0.99498934       0.00000000
Si       1.59633856       0.19284102       1.72279651       0.00000000
Si      -0.19793979       1.44567235      -1.89761620       0.00000000
Si       2.51232527       2.08352360       0.63422823       0.00000000
Si       2.15868566       1.86452084      -1.76091160       0.00000000
Si      -1.23165433      -0.26588538      -3.26144729       0.00000000
Si       2.90295948      -0.40220010      -2.06140105       0.00000000
Si      -0.12841407      -2.29089041      -2.77012170       0.00000000
Si      -3.24079779       1.51786963       0.49135455       0.00000000
