10
Lattice="16.2900001489832 0.0 0.0 0.0 16.2900001489832 0.0 0.0 0.0 28.96283823314758" Properties=species:S:1:pos:R:3:initial_magmoms:R:1 pbc="T T T"
Si       1.37215558      -1.40048389      -1.31763536       0.00000000
Si       1.33468858       1.35413884       1.41521116       0.00000000
Si      -1.26094375       1.28098045      -1.54858503       0.00000000
Si      -1.37756386      -1.36653553       1.37153520       0.00000000
Si      -2.64062531       2.69750999      -0.27320645       0.00000000
Si       2.74193491      -0.10047672       2.62461240       0.00000000
Si       2.69407280       2.71740008       0.02450256       0.00000000
Si      -0.03536559      -2.73709470      -2.67764336       0.00000000
Si       2.74274734      -0.02493999      -2.67857017       0.00000000
Si      -2.72813520       0.09563859       2.70759093       0.00000000
