10
Lattice="16.2900001489832 0.0 0.0 0.0 16.2900001489832 0.0 0.0 0.0 28.96283823314758" Properties=species:S:1:pos:R:3:initial_magmoms:R:1 pbc="T T T"
Si       1.26623802      -1.15891948       1.61038015       0.00000000
Si       1.53982041       1.22554558      -1.33249996       0.00000000
Si      -1.36666585       1.45088515       1.30858158       0.00000000
Si      -1.12247875      -1.71300755      -1.31174258       0.00000000
Si      -2.68646537      -0.03222162      -2.33878974       0.00000000
Si       2.54806065      -2.50649345       0.19094620       0.00000000
Si       0.79483798      -3.39723066      -1.16102374       0.00000000
Si       0.19357407       2.65673612      -2.64362361       0.00000000
Si      -2.81924517      -2.63801891       0.07285023       0.00000000
Si      -2.73745308       0.14700096       2.74036528       0.00000000
