10
Lattice="16.2900001489832 0.0 0.0 0.0 16.2900001489832 0.0 0.0 0.0 28.96283823314758" Properties=species:S:1:pos:R:3:initial_magmoms:R:1 pbc="T T T"
Si       1.40724633      -1.45461556       1.20940124       0.00000000
Si      -1.33468858      -1.35413884      -1.41521116       0.00000000
Si       1.35938422       1.36326124      -1.39070860       0.00000000
Si      -1.39812184       1.40157532       1.34543969       0.00000000
Si      -2.62133795       2.65398311      -0.28896224       0.00000000
Si      -2.71225244      -2.72067437      -0.04367596       0.00000000
Si       2.73816658      -0.02950119      -2.69655609       0.00000000
Si       2.73306292       2.71567334      -0.00926811       0.00000000
Si       0.03746700      -2.75462274      -2.73284653       0.00000000
Si       2.87841696      -0.27398151       2.60039947       0.00000000
