10
Lattice="16.2900001489832 0.0 0.0 0.0 16.2900001489832 0.0 0.0 0.0 28.96283823314758" Properties=species:S:1:pos:R:3:initial_magmoms:R:1 pbc="T T T"
Si       0.30341754       1.19461087      -1.93043109       0.00000000
Si       0.80353684       1.37916028       1.72282547       0.00000000
Si       2.05058685      -1.11887866      -0.24632894       0.00000000
Si      -2.03025530      -1.29098903       0.06366032       0.00000000
Si       1.28046732      -3.00403893       0.88206324       0.00000000
Si      -0.92952370      -3.43352478       0.11176759       0.00000000
Si      -0.98481196       2.93281905       1.82685998       0.00000000
Si       2.33073087       2.40787379      -1.32577392       0.00000000
Si       2.20631599      -0.09598068       2.94777975       0.00000000
Si      -1.62898372       2.55997352      -2.09838659       0.00000000
