10
Lattice="16.2900001489832 0.0 0.0 0.0 16.2900001489832 0.0 0.0 0.0 28.96283823314758" Properties=species:S:1:pos:R:3:initial_magmoms:R:1 pbc="T T T"
Si      -1.77482810      -1.38430792       0.55715812       0.00000000
Si      -1.04682799       1.83945053      -1.10739412       0.00000000
Si       1.98496910      -1.10975626      -0.83598336       0.00000000
Si       0.76771513       1.26081343       1.92350898       0.00000000
Si       2.20480265       2.54283644       0.57465167       0.00000000
Si       3.48677679       0.76476664      -0.51139683       0.00000000
Si      -2.94671442       2.27323694       0.30929415       0.00000000
Si       0.55923571       3.62338473      -0.79893989       0.00000000
Si      -3.53580969       0.17687682       1.28148974       0.00000000
H       -0.61455655      -1.33250572      -3.54270541       0.00000000
