10
Lattice="16.2900001489832 0.0 0.0 0.0 16.2900001489832 0.0 0.0 0.0 28.96283823314758" Properties=species:S:1:pos:R:3:initial_magmoms:R:1 pbc="T T T"
Si      -1.91334197       1.30285792       0.25461231       0.00000000
Si       0.25995582      -0.77239036       2.18866376       0.00000000
Si       1.64426212       1.70600285      -0.02925247       0.00000000
Si       0.22470426      -1.25981974      -1.99727732       0.00000000
H       -1.24584292       2.85254193       0.28157671       0.00000000
H        1.18122049      -2.39005253      -1.66301721       0.00000000
H        2.34756984      -2.34175268       0.27995479       0.00000000
H       -1.07784415      -3.44934237       0.47302107       0.00000000
Si       0.22116933       3.67416066       0.23306396       0.00000000
Si       1.41850272       0.19653885      -3.40017928       0.00000000
