10
Lattice="16.2900001489832 0.0 0.0 0.0 16.2900001489832 0.0 0.0 0.0 28.96283823314758" Properties=species:S:1:pos:R:3:initial_magmoms:R:1 pbc="T T T"
H       -0.93374281      -0.94799656       0.74944240       0.00000000
Si       1.21740058       1.27477396       1.56101009       0.00000000
Si      -1.49214772       1.54675180      -0.97506291       0.00000000
Si       1.51040881      -1.43707123      -1.23384587       0.00000000
H        1.21542949      -2.32165082       0.53025164       0.00000000
Si       1.33160977      -0.71197075       3.03368353       0.00000000
Si      -0.19176588      -2.50862744      -2.46806826       0.00000000
Si       0.85726126      -2.81965242       1.94334852       0.00000000
Si       2.54749538       0.26880129      -2.52347417       0.00000000
Si      -2.17249958       2.93280276       0.82628081       0.00000000
