10
Lattice="16.2900001489832 0.0 0.0 0.0 16.2900001489832 0.0 0.0 0.0 28.96283823314758" Properties=species:S:1:pos:R:3:initial_magmoms:R:1 pbc="T T T"
Si       0.58277476      -1.13251339      -2.01659554       0.00000000
Si       0.58495762      -1.74752606       1.57149464       0.00000000
Si      -1.98496910       1.10975626       0.83598336       0.00000000
Si       1.50180769       1.87452290       0.32458653       0.00000000
H        2.10145889      -1.17594253      -1.72239103       0.00000000
Si       1.52505352      -0.29582640       3.21788718       0.00000000
Si       3.03376818       0.84957238       1.80287875       0.00000000
H       -2.59952564      -0.22274946      -2.70672205       0.00000000
Si      -1.21725397       2.37056969       2.75949234       0.00000000
Si       0.21983355       3.65259270       1.41063504       0.00000000
