10
Lattice="16.2900001489832 0.0 0.0 0.0 16.2900001489832 0.0 0.0 0.0 28.96283823314758" Properties=species:S:1:pos:R:3:initial_magmoms:R:1 pbc="T T T"
Si      -2.29269860       0.18609207       0.11987719       0.00000000
Si       1.30161988       1.74049529       0.92069966       0.00000000
Si       0.23043834      -1.60892422       1.75245445       0.00000000
Si       0.83355931       0.31802479      -2.24603914       0.00000000
Si       1.80193466       2.28845832      -1.36872581       0.00000000
Si      -2.52173926       0.82098994       2.39041889       0.00000000
Si      -2.86769488      -2.12091892       0.19338487       0.00000000
Si       2.50654232      -1.31197381      -2.24299804       0.00000000
H       -0.33185988      -2.16783412      -3.01575553       0.00000000
Si      -0.03194469       3.75115372       0.81168354       0.00000000
