10
Lattice="16.2900001489832 0.0 0.0 0.0 16.2900001489832 0.0 0.0 0.0 28.96283823314758" Properties=species:S:1:pos:R:3:initial_magmoms:R:1 pbc="T T T"
Si      -1.34624634       1.43119054      -1.31112365       0.00000000
Si       1.17106856       1.55377279       1.35555148       0.00000000
Si      -1.53982041      -1.22554558       1.33249996       0.00000000
Si       1.54615722      -1.42131880      -1.27300855       0.00000000
Si      -2.71757113      -0.11236842      -2.42129820       0.00000000
Si      -0.27358239      -2.38446506       2.94288011       0.00000000
Si       2.39248789       0.31412007       2.94447306       0.00000000
Si       0.03336355       2.43558308      -2.93686568       0.00000000
Si       2.87838601       2.52982073       0.00525033       0.00000000
Si       2.75564086      -2.66722688       0.33055664       0.00000000
