10
Lattice="16.2900001489832 0.0 0.0 0.0 16.2900001489832 0.0 0.0 0.0 28.96283823314758" Properties=species:S:1:pos:R:3:initial_magmoms:R:1 pbc="T T T"
Si       1.53701038       1.22912938       1.28259033       0.00000000
Si      -1.20494850      -1.60392970       1.23546779       0.00000000
Si      -1.35030255       1.38572515      -1.37419979       0.00000000
Si       1.38489436      -1.35984034      -1.37923932       0.00000000
H       -0.22375944      -2.71847522       1.56124180       0.00000000
Si       3.02915811      -0.31762242       2.25765324       0.00000000
Si      -2.67611914      -2.78456376      -0.15553044       0.00000000
Si      -2.72398124       0.03331305      -2.75564028       0.00000000
H        2.09541530      -1.26561898       3.00709564       0.00000000
Si       0.04540023      -2.74717821      -2.75824694       0.00000000
