10
Lattice="16.2900001489832 0.0 0.0 0.0 16.2900001489832 0.0 0.0 0.0 28.96283823314758" Properties=species:S:1:pos:R:3:initial_magmoms:R:1 pbc="T T T"
Si      -1.89390800       1.08704800       0.86294777       0.00000000
Si       0.22589343       1.63549972      -1.67289354       0.00000000
Si      -0.00291591      -2.31471128      -0.52918002       0.00000000
Si       1.70484626      -0.05942592       1.74863136       0.00000000
H        2.90504460      -1.28203930      -0.37260691       0.00000000
Si      -1.67145176       0.33715413       3.04306749       0.00000000
Si       2.25877142      -2.39145347      -1.20094409       0.00000000
Si       3.29641185       1.56566449       0.95603433       0.00000000
Si       0.62731162       0.85897171       3.62944911       0.00000000
Si      -1.70010587       3.41114232       0.80557238       0.00000000
