10
Lattice="16.2900001489832 0.0 0.0 0.0 16.2900001489832 0.0 0.0 0.0 28.96283823314758" Properties=species:S:1:pos:R:3:initial_magmoms:R:1 pbc="T T T"
H        0.60835006       0.32663079      -1.33672187       0.00000000
Si       1.24810723      -1.84011842       0.82376105       0.00000000
Si      -2.28185435      -0.62444458      -0.22564947       0.00000000
Si       0.30926565       1.80126677       1.53410362       0.00000000
H       -0.81187732       2.13759011      -1.21704743       0.00000000
H       -0.72169588       0.08555508      -2.90146817       0.00000000
H       -0.89565679       2.90991531      -1.31355160       0.00000000
Si       0.96347206       0.39444606       3.38259884       0.00000000
H       -2.24911145       0.14589324       2.85550415       0.00000000
Si       0.21510945      -1.91006768       3.10750980       0.00000000
