10
Lattice="16.2900001489832 0.0 0.0 0.0 16.2900001489832 0.0 0.0 0.0 28.96283823314758" Properties=species:S:1:pos:R:3:initial_magmoms:R:1 pbc="T T T"
Si       2.24090129      -0.68659907       0.59063916       0.00000000
Si      -0.36611775      -2.25854662       0.85252114       0.00000000
Si      -2.12804417      -0.83605494      -1.04943948       0.00000000
Si      -0.89277346       1.10923172       2.07649069       0.00000000
Si       0.32011479       0.74111030      -2.45358684       0.00000000
Si      -2.65388537      -2.65556650       0.38427894       0.00000000
Si      -1.22394916       3.34653292       1.26356174       0.00000000
Si       2.00590175      -1.26668109       2.94885137       0.00000000
Si      -3.58811688       1.08953711      -0.95591848       0.00000000
Si       3.59381838       1.26467090       0.78608039       0.00000000
