10
Lattice="16.2900001489832 0.0 0.0 0.0 16.2900001489832 0.0 0.0 0.0 28.96283823314758" Properties=species:S:1:pos:R:3:initial_magmoms:R:1 pbc="T T T"
Si      -2.04990430      -0.40431943       1.00489464       0.00000000
Si      -0.24252064      -0.25013295      -2.30544192       0.00000000
Si       1.17716102      -1.59605023       1.28884630       0.00000000
Si       0.98334260       2.03617997       0.74388154       0.00000000
Si      -0.73057344      -1.32813023       2.79390019       0.00000000
Si       2.57125924       1.96471574      -1.03339407       0.00000000
Si       1.66382478       0.89977327      -2.96967566       0.00000000
Si       3.20244787      -0.37377080       1.71549787       0.00000000
Si       1.96201323       1.29353515       2.81081449       0.00000000
Si      -3.19113284      -1.99624667      -0.31783819       0.00000000
