10
Lattice="16.28999089631971 0.0 0.0 0.0 16.28999089631971 0.0 0.0 0.0 34.40246978574605" Properties=species:S:1:pos:R:3:initial_magmoms:R:1 pbc="T T T"
Si      -1.53203282       1.32983415       1.16239130       0.00000000
Si      -1.39886207      -1.82692350      -0.46838989       0.00000000
Si       1.64138040      -0.76110138       1.52925944       0.00000000
Si       1.19990511       0.44110062      -2.07206191       0.00000000
Si       2.28117015      -2.37449556      -0.07599510       0.00000000
Si       0.20188849      -3.56531085      -0.41310509       0.00000000
Si      -2.78512478      -0.27390006       2.45245023       0.00000000
Si       3.13263216      -0.99430902      -1.76505410       0.00000000
Si       3.43227042       0.79706970       1.38384012       0.00000000
Si       1.37363796       2.83504644      -2.23420084       0.00000000
