10
Lattice="16.28999089631971 0.0 0.0 0.0 16.28999089631971 0.0 0.0 0.0 34.40246978574605" Properties=species:S:1:pos:R:3:initial_magmoms:R:1 pbc="T T T"
Si      -0.84132053       1.53268279       1.61702019       0.00000000
Si      -0.28734094       0.97994124      -2.33768353       0.00000000
Si      -0.80051408      -2.26476612      -0.94249059       0.00000000
Si       1.84212207      -1.23365799       1.55382282       0.00000000
Si      -2.25299564       1.53763983      -1.23952168       0.00000000
Si      -1.84563161      -0.16601139       2.96413707       0.00000000
Si       1.45127610      -3.35948670      -1.46936471       0.00000000
Si       0.95250073       2.64500145       2.79964845       0.00000000
Si      -2.23418069      -3.24615717       0.62203140       0.00000000
Si      -3.53306384      -1.08911682       1.55086420       0.00000000
