10
Lattice="16.28999089631971 0.0 0.0 0.0 16.28999089631971 0.0 0.0 0.0 34.40246978574605" Properties=species:S:1:pos:R:3:initial_magmoms:R:1 pbc="T T T"
Si       1.35682668       1.35716877       1.35707498       0.00000000
Si      -1.35663120       1.35549090      -1.36065284       0.00000000
Si      -1.35816246      -1.35849478       1.35693737       0.00000000
Si       1.35532800      -1.36182282      -1.35810706       0.00000000
Si      -2.69620677      -0.03196098      -2.71242984       0.00000000
Si      -0.00293220       2.72482830      -2.69681455       0.00000000
Si       2.71368594       2.71498914      -0.00089446       0.00000000
Si       2.71503801      -0.00138465       2.71411557       0.00000000
Si      -2.71334385       2.71598283      -0.00034402       0.00000000
Si      -0.00065160       2.71448415       2.71501003       0.00000000
