10
Lattice="16.28999089631971 0.0 0.0 0.0 16.28999089631971 0.0 0.0 0.0 34.40246978574605" Properties=species:S:1:pos:R:3:initial_magmoms:R:1 pbc="T T T"
Si       1.36058967       1.34808710      -1.40186702       0.00000000
Si      -1.35343836      -1.36531281      -1.40334633       0.00000000
Si       1.25411823      -1.54753275       1.43461819       0.00000000
Si      -1.45173222       1.45470514       1.54271081       0.00000000
Si       2.69913897      -2.71837650      -0.05101889       0.00000000
Si       2.68892514       2.73827569      -0.04035412       0.00000000
Si      -2.73129543       2.70434362      -0.02993017       0.00000000
Si      -2.72466540      -2.72240013      -0.02776281       0.00000000
Si       0.00231318       2.70493007      -2.76320792       0.00000000
Si      -2.71410948      -0.01076280      -2.76386156       0.00000000
