10
Lattice="16.28999089631971 0.0 0.0 0.0 16.28999089631971 0.0 0.0 0.0 34.40246978574605" Properties=species:S:1:pos:R:3:initial_magmoms:R:1 pbc="T T T"
Si       1.04844069       1.52046299      -1.47001836       0.00000000
Si      -1.51101153      -1.29345202      -1.46251861       0.00000000
Si      -0.98290602       0.94505132       2.12490414       0.00000000
Si       1.98431748      -2.81906988      -0.03701708       0.00000000
Si      -2.57926086      -2.28863490       0.48738006       0.00000000
Si      -3.06970389      -0.21472663       1.77909032       0.00000000
Si      -0.64039248      -3.48777438       1.31734011       0.00000000
Si       1.91602980       3.29423222       0.05081248       0.00000000
Si       2.50017291       0.06575784      -3.01272917       0.00000000
Si      -0.22449249      -2.65664229      -3.04049198       0.00000000
