10
Lattice="16.28999089631971 0.0 0.0 0.0 16.28999089631971 0.0 0.0 0.0 34.40246978574605" Properties=species:S:1:pos:R:3:initial_magmoms:R:1 pbc="T T T"
Si       2.19916629      -0.65378286       0.59794966       0.00000000
Si      -0.15061734       2.34351198       0.33095194       0.00000000
Si      -0.25319547      -0.20527029      -2.36957464       0.00000000
Si      -1.94378796      -0.76626531       1.27736442       0.00000000
Si      -0.51235308       2.04801138       2.69560703       0.00000000
Si      -3.53535354      -0.65168145      -0.44678512       0.00000000
Si      -2.31563979      -1.42873074      -2.39296833       0.00000000
Si       0.95254146       0.34223661       3.64325799       0.00000000
Si       2.90975238       0.72410679       2.36458628       0.00000000
Si       3.44136024      -0.92626569      -1.38772760       0.00000000
