10
Lattice="16.28999089631971 0.0 0.0 0.0 16.28999089631971 0.0 0.0 0.0 34.40246978574605" Properties=species:S:1:pos:R:3:initial_magmoms:R:1 pbc="T T T"
Si      -1.45385417       1.17838602      -1.38012465       0.00000000
Si       1.28877325      -1.55306579      -1.33866965       0.00000000
Si       0.88027218       1.69526772       1.66033292       0.00000000
Si      -0.58461977      -0.40141818       2.45709457       0.00000000
Si       2.60785274       2.55088368       0.04695940       0.00000000
Si      -0.07456358       2.51602308      -2.73823171       0.00000000
Si      -2.72062973       2.57658930       0.09013452       0.00000000
Si       2.64299027      -0.19867284      -2.73716523       0.00000000
Si      -2.95564556      -1.05709068       2.17361806       0.00000000
Si      -2.79248492      -0.19935702      -2.73709643       0.00000000
