10
Lattice="16.28999089631971 0.0 0.0 0.0 16.28999089631971 0.0 0.0 0.0 34.40246978574605" Properties=species:S:1:pos:R:3:initial_magmoms:R:1 pbc="T T T"
Si      -1.13107986       1.29878541      -1.58261770       0.00000000
Si      -1.71010791      -0.89717175       1.54074987       0.00000000
Si       0.61761906       2.12288022       1.14532766       0.00000000
Si       1.56296034      -1.38737043      -1.56314589       0.00000000
Si      -2.51260218       2.64600099      -0.24381044       0.00000000
Si      -2.57769702      -2.67094098       0.01991904       0.00000000
Si       1.64825478      -2.99876094       1.50280393       0.00000000
Si      -3.48286716       0.92009178       1.09276066       0.00000000
Si       2.71803537       2.61475677      -0.03629463       0.00000000
Si      -2.48010363      -0.06213006      -2.92923433       0.00000000
