10
Lattice="16.28999089631971 0.0 0.0 0.0 16.28999089631971 0.0 0.0 0.0 34.40246978574605" Properties=species:S:1:pos:R:3:initial_magmoms:R:1 pbc="T T T"
Si      -1.06824933      -0.99518288       1.94989867       0.00000000
Si       1.28651904      -1.36319027      -1.57797337       0.00000000
Si       1.51101153       1.29345202       1.46251861       0.00000000
Si      -1.40973334       1.35194289      -1.55839835       0.00000000
Si       0.87061905      -2.19432236       2.77985872       0.00000000
Si      -1.55869236       1.07872538       3.24160893       0.00000000
Si       2.55945222       2.81391500      -0.00749974       0.00000000
Si       2.53184067      -2.86157705      -0.24735390       0.00000000
Si      -2.69850659       2.90500868      -0.21972870       0.00000000
Si       2.65774608      -0.00610295      -2.95355689       0.00000000
