10
Lattice="16.28999089631971 0.0 0.0 0.0 16.28999089631971 0.0 0.0 0.0 34.40246978574605" Properties=species:S:1:pos:R:3:initial_magmoms:R:1 pbc="T T T"
Si      -2.08679787      -1.15977795      -0.34581382       0.00000000
Si      -0.80835867       2.34551565       0.25794986       0.00000000
Si       0.98290602      -0.94505132      -2.12490414       0.00000000
Si       1.01923272      -0.52370721       2.26643598       0.00000000
Si       3.08167704       0.69975324       2.28982967       0.00000000
Si       2.94327720       2.57259825       0.60782318       0.00000000
Si      -1.59635484      -3.23368622      -1.63752407       0.00000000
Si      -2.34633992       2.36177307      -2.14681852       0.00000000
Si      -3.81123188       0.26508717      -1.35005688       0.00000000
Si      -1.94463178       2.79226890       2.34466724       0.00000000
