10
Lattice="16.28999089631971 0.0 0.0 0.0 16.28999089631971 0.0 0.0 0.0 34.40246978574605" Properties=species:S:1:pos:R:3:initial_magmoms:R:1 pbc="T T T"
Si       0.13654278       0.58244895       2.26506886       0.00000000
Si      -1.20269070      -2.02808871       0.15126774       0.00000000
Si      -1.77903090       1.46329812      -0.64446183       0.00000000
Si       2.39163264      -0.25177824      -0.30979441       0.00000000
Si       2.05838811      -0.96920613       2.15419205       0.00000000
Si      -1.13319756       1.20352149      -3.05869090       0.00000000
Si       2.51009352       1.92723732      -1.49867563       0.00000000
Si      -2.25425907      -2.14739667      -1.95540307       0.00000000
Si      -2.90851434      -1.48644621       1.82577449       0.00000000
Si      -3.67272711       0.49692645       0.80467422       0.00000000
