10
Lattice="16.28999089631971 0.0 0.0 0.0 16.28999089631971 0.0 0.0 0.0 34.40246978574605" Properties=species:S:1:pos:R:3:initial_magmoms:R:1 pbc="T T T"
Si      -1.60981038       1.35425286      -1.13658943       0.00000000
Si       1.60529805       1.10680776       1.52909917       0.00000000
Si      -1.07251731      -1.57405383       1.59471503       0.00000000
Si       0.61255287      -0.04732245      -2.68456383       0.00000000
Si      -2.25476406      -2.92095990       0.10692294       0.00000000
Si      -0.43515477      -3.26855592      -1.75610945       0.00000000
Si       0.20696445       2.39565627       3.01413421       0.00000000
Si       2.51387280       2.93752683       0.34832146       0.00000000
Si      -2.49391755      -0.31210011       3.02317518       0.00000000
Si      -2.90584278       2.71068858       0.25891313       0.00000000
