10
Lattice="16.28999089631971 0.0 0.0 0.0 16.28999089631971 0.0 0.0 0.0 34.40246978574605" Properties=species:S:1:pos:R:3:initial_magmoms:R:1 pbc="T T T"
Si       0.90857475       1.83071907      -1.18077771       0.00000000
Si      -1.39833360       1.28884851       1.48503504       0.00000000
Si       1.30960197      -1.40535459       1.47743209       0.00000000
Si      -1.60529805      -1.10680776      -1.52909917       0.00000000
Si       2.68047063      -2.66312178      -0.00170980       0.00000000
Si      -2.67781536      -2.68086159       0.06561587       0.00000000
Si      -0.76641192       3.54590946      -1.15589645       0.00000000
Si       2.72855871       2.68084530       0.07101706       0.00000000
Si      -2.76610716       2.66142762       0.10276023       0.00000000
Si      -0.04522104       2.66098779       2.85331148       0.00000000
