10
Lattice="16.28999089631971 0.0 0.0 0.0 16.28999089631971 0.0 0.0 0.0 34.40246978574605" Properties=species:S:1:pos:R:3:initial_magmoms:R:1 pbc="T T T"
Si       1.34192133       1.35910728       1.35779744       0.00000000
Si      -1.35373158       1.35172791      -1.35514844       0.00000000
Si      -1.34092764      -1.36192545       1.36278580       0.00000000
Si       1.35832536      -1.36239786      -1.35370354       0.00000000
Si       0.24939990      -2.53674396       2.71036569       0.00000000
Si      -0.10309941       2.52995103       2.84343452       0.00000000
Si       2.63891484       0.04083903       2.75202711       0.00000000
Si       0.00263898       2.70995345      -2.71284267       0.00000000
Si      -2.71065600       2.71217097       0.00547000       0.00000000
Si      -2.71178001      -0.00417024      -2.71287708       0.00000000
