10
Lattice="16.28999089631971 0.0 0.0 0.0 16.28999089631971 0.0 0.0 0.0 34.40246978574605" Properties=species:S:1:pos:R:3:initial_magmoms:R:1 pbc="T T T"
Si       1.35736425       1.35817875      -1.35962077       0.00000000
Si      -1.35832536      -1.35848826      -1.35986159       0.00000000
Si       1.36176255      -1.36311462       1.35721259       0.00000000
Si      -1.36462959       1.36837629       1.35710939       0.00000000
Si      -0.01550808      -2.70071910       2.71865669       0.00000000
Si       2.71406061      -2.71467963      -0.00299302       0.00000000
Si      -2.71470569       2.71474479      -0.00230497       0.00000000
Si       2.71541268       2.71407690      -0.00189214       0.00000000
Si       2.71412577       0.00003258      -2.71669575       0.00000000
Si      -2.71630537      -2.71463076      -0.00443792       0.00000000
