10
Lattice="16.28999089631971 0.0 0.0 0.0 16.28999089631971 0.0 0.0 0.0 34.40246978574605" Properties=species:S:1:pos:R:3:initial_magmoms:R:1 pbc="T T T"
Si       1.64144556       0.00465894       1.67319946       0.00000000
Si      -1.32382966       1.49175675       1.24884475       0.00000000
Si       1.13018391       0.88479135      -1.94109164       0.00000000
Si      -0.51219018      -2.27160629       0.63881982       0.00000000
Si       2.65020381      -2.02305021       0.77773707       0.00000000
Si      -1.23720432       0.09233172       3.19788337       0.00000000
Si      -2.27297954      -1.66959468       2.11121195       0.00000000
Si       0.08775423       3.36052926       1.42319657       0.00000000
Si      -0.57923982      -3.36128579      -1.42591436       0.00000000
Si      -0.51714234       2.31510222      -2.94440583       0.00000000
