10
Lattice="16.28999089631971 0.0 0.0 0.0 16.28999089631971 0.0 0.0 0.0 34.40246978574605" Properties=species:S:1:pos:R:3:initial_magmoms:R:1 pbc="T T T"
Si      -2.29187268       0.36934317       0.45256474       0.00000000
Si      -0.04833243      -2.30273811      -0.56475126       0.00000000
Si       1.31183370      -0.32467599       1.94934823       0.00000000
Si       1.65767040       1.09006068      -1.74764644       0.00000000
Si       3.07538910      -1.36347300       0.79579838       0.00000000
Si       1.39976712       3.33422810      -0.91823683       0.00000000
Si       0.14781546      -2.34743787      -3.03151293       0.00000000
Si      -2.86234848       2.62935980      -0.04720021       0.00000000
Si       0.60408207      -2.32686360       3.07661459       0.00000000
Si       2.05455996      -3.32394192      -0.06054838       0.00000000
