10
Lattice="16.28999089631971 0.0 0.0 0.0 16.28999089631971 0.0 0.0 0.0 34.40246978574605" Properties=species:S:1:pos:R:3:initial_magmoms:R:1 pbc="T T T"
Si       0.03898197       1.53542277       1.80719715       0.00000000
Si      -2.36045358       0.08623926      -0.32324579       0.00000000
Si       0.63280134       0.81832815      -2.15077481       0.00000000
Si       1.19423619      -2.11774887       0.23703315       0.00000000
Si      -0.89661789      -0.54838656      -3.32998892       0.00000000
Si      -3.12933832      -1.65037248       1.07366728       0.00000000
Si      -1.17682218      -2.75755491      -2.26671120       0.00000000
Si       1.16616852      -3.05494515      -1.92020933       0.00000000
Si      -1.98231381       1.22829858       3.04933342       0.00000000
Si      -3.04222103       2.38688966      -0.16330862       0.00000000
