10
Lattice="16.28999089631971 0.0 0.0 0.0 16.28999089631971 0.0 0.0 0.0 34.40246978574605" Properties=species:S:1:pos:R:3:initial_magmoms:R:1 pbc="T T T"
Si       0.79228044       0.70283205      -2.09628127       0.00000000
Si       0.73379934      -2.21998491       0.29076984       0.00000000
Si       1.27441557       1.43772282       1.36505636       0.00000000
Si      -2.29560309       0.81757881      -0.05734895       0.00000000
Si       0.09985770       2.93874858      -1.73006677       0.00000000
Si       1.06427457       3.56639481       0.30955360       0.00000000
Si       0.21567960       1.58092821       3.46402102       0.00000000
Si      -2.12581242       2.95472907      -1.14993760       0.00000000
Si      -0.73477674      -3.60012258       1.42429745       0.00000000
Si       1.19040804      -3.35292183      -1.69745321       0.00000000
