10
Lattice="16.28999089631971 0.0 0.0 0.0 16.28999089631971 0.0 0.0 0.0 34.40246978574605" Properties=species:S:1:pos:R:3:initial_magmoms:R:1 pbc="T T T"
Si       1.05873597      -0.14320539      -2.09896466       0.00000000
Si      -0.39651489       2.31734765       0.25179182       0.00000000
Si       1.09814148      -0.28196361       2.09380429       0.00000000
Si      -2.16507132      -1.02341925       0.14961642       0.00000000
Si      -2.21695497       1.99515263       1.74076594       0.00000000
Si       2.53376289      -2.08808478       1.78652125       0.00000000
Si      -0.21567960      -1.58092821      -3.46402102       0.00000000
Si       0.84859497       1.98546660      -3.15446742       0.00000000
Si      -0.57013371       3.32954472      -1.85539504       0.00000000
Si       3.35277522      -0.59776155      -2.00294731       0.00000000
