10
Lattice="16.28999089631971 0.0 0.0 0.0 16.28999089631971 0.0 0.0 0.0 34.40246978574605" Properties=species:S:1:pos:R:3:initial_magmoms:R:1 pbc="T T T"
Si      -1.35677781       1.35824306      -1.35765983       0.00000000
Si       1.35915615      -1.35873413      -1.35865750       0.00000000
Si      -1.37495745      -1.35042623       1.35566448       0.00000000
Si       1.37652129       1.34235216       1.36970070       0.00000000
Si       2.70814734      -2.70735065      -0.00051604       0.00000000
Si      -0.07796394      -2.66869448       2.74989415       0.00000000
Si      -2.71687878      -2.70953351      -0.00213295       0.00000000
Si       2.71371852       2.71439207       0.00006880       0.00000000
Si       0.00128691      -2.71347569      -2.71531965       0.00000000
Si      -2.71423980       0.00041994      -2.71497563       0.00000000
