10
Lattice="16.28999089631971 0.0 0.0 0.0 16.28999089631971 0.0 0.0 0.0 34.40246978574605" Properties=species:S:1:pos:R:3:initial_magmoms:R:1 pbc="T T T"
Si      -1.35682668      -1.35716877      -1.35707498       0.00000000
Si       1.35685926       1.35782037      -1.35796945       0.00000000
Si      -1.35747828       1.35731538       1.35793505       0.00000000
Si       1.35821133      -1.35855342       1.35704058       0.00000000
Si      -2.71446786       2.71432125       0.00013761       0.00000000
Si       2.71554300      -0.00104256       2.71366833       0.00000000
Si       2.71511946       2.71443528      -0.00051604       0.00000000
Si      -0.00009774      -2.71545178       2.71435638       0.00000000
Si       0.00273672       2.71544526       2.71456280       0.00000000
Si      -0.00146610       2.71590138      -2.71449399       0.00000000
