10
Lattice="16.28999089631971 0.0 0.0 0.0 16.28999089631971 0.0 0.0 0.0 34.40246978574605" Properties=species:S:1:pos:R:3:initial_magmoms:R:1 pbc="T T T"
Si      -1.34436483      -1.36155078      -1.39037659       0.00000000
Si       1.36573731       1.35544203      -1.38758999       0.00000000
Si       1.44244692      -1.30373757       1.43420536       0.00000000
Si      -1.57322304       1.31427720       1.50008613       0.00000000
Si      -0.24332373       1.70953776       3.40450472       0.00000000
Si      -2.68372863       2.72036484      -0.03694827       0.00000000
Si       2.70922248      -2.70194085      -0.03605381       0.00000000
Si      -2.72829807      -2.68785000      -0.02676514       0.00000000
Si       2.73396699       2.70578529      -0.02177678       0.00000000
Si      -2.69707014      -0.00493587      -2.75054780       0.00000000
