10
Lattice="16.28999089631971 0.0 0.0 0.0 16.28999089631971 0.0 0.0 0.0 34.40246978574605" Properties=species:S:1:pos:R:3:initial_magmoms:R:1 pbc="T T T"
Si       1.35482301       1.35679410      -1.35704058       0.00000000
Si       1.35270531      -1.35661491       1.36017121       0.00000000
Si      -1.35971001       1.35428544       1.36010240       0.00000000
Si      -1.36021500      -1.35812988      -1.35662775       0.00000000
Si      -0.03122793      -2.68291413       2.72378267       0.00000000
Si       2.71238274      -0.00100998      -2.71507884       0.00000000
Si      -0.00294849       2.71397916      -2.71459720       0.00000000
Si       2.71280628      -2.71648782      -0.00089446       0.00000000
Si      -2.72526813       0.00324171       2.70431086       0.00000000
Si       2.71324611       2.71656927       0.00044723       0.00000000
