10
Lattice="16.28999089631971 0.0 0.0 0.0 16.28999089631971 0.0 0.0 0.0 34.40246978574605" Properties=species:S:1:pos:R:3:initial_magmoms:R:1 pbc="T T T"
Si      -1.33529130      -1.36195803      -1.35194557       0.00000000
Si       1.35830907      -1.35096228       1.35814146       0.00000000
Si      -1.35866745       1.36321236       1.35731580       0.00000000
Si       1.36117611       1.36490652      -1.37980127       0.00000000
Si      -2.48759703       0.13823694      -2.69115878       0.00000000
Si      -0.00104256      -2.71029762       2.71542286       0.00000000
Si       2.71502172      -2.71145421      -0.00216736       0.00000000
Si       2.71401174       0.00454491       2.71569808       0.00000000
Si      -2.71749780      -2.71248048       0.00044723       0.00000000
Si       2.71378368       2.71725345      -0.00213295       0.00000000
