10
Lattice="16.28999089631971 0.0 0.0 0.0 16.28999089631971 0.0 0.0 0.0 34.40246978574605" Properties=species:S:1:pos:R:3:initial_magmoms:R:1 pbc="T T T"
Si       0.78957630      -2.16171558       0.24976207       0.00000000
Si       0.94957668       1.13593428      -1.86808956       0.00000000
Si      -2.24080353      -0.89314812       0.23840925       0.00000000
Si       1.35197226       1.95076008       0.70459738       0.00000000
Si      -0.60893649       3.44147427       0.28474940       0.00000000
Si       0.83694762      -0.41992362      -3.59182627       0.00000000
Si      -0.42694461      -3.42863775      -1.36636366       0.00000000
Si       3.08195397       1.85285718      -1.02939128       0.00000000
Si      -3.30629985       0.85949298       1.60449769       0.00000000
Si      -0.27922689      -1.10714985       3.62106838       0.00000000
