10
Lattice="16.28999089631971 0.0 0.0 0.0 16.28999089631971 0.0 0.0 0.0 34.40246978574605" Properties=species:S:1:pos:R:3:initial_magmoms:R:1 pbc="T T T"
Si      -1.33884333      -1.34907264      -1.36855509       0.00000000
Si       1.36065483      -1.35283563       1.35783184       0.00000000
Si      -1.35499138       1.35959598       1.35800385       0.00000000
Si       1.38220650       1.35052245      -1.35239281       0.00000000
Si      -2.61720746       0.06476904      -2.74706971       0.00000000
Si       0.00108817      -2.71258148       2.71473481       0.00000000
Si      -2.71185236       2.71658556      -0.00261459       0.00000000
Si      -2.71359539       0.00182448       2.71504443       0.00000000
Si       2.71749780       2.71248048      -0.00044723       0.00000000
Si       2.71658556      -2.71355399       0.00068805       0.00000000
