10
Lattice="16.28999089631971 0.0 0.0 0.0 16.28999089631971 0.0 0.0 0.0 34.40246978574605" Properties=species:S:1:pos:R:3:initial_magmoms:R:1 pbc="T T T"
Si      -1.35674523       1.35682668       1.35738461       0.00000000
Si      -1.35537687      -1.35827649      -1.35731580       0.00000000
Si       1.35777150      -1.35718506       1.35755662       0.00000000
Si       1.35824391       1.35773892      -1.35690297       0.00000000
Si      -0.00125433      -2.71352304      -2.71445959       0.00000000
Si       2.71347417      -0.00133578      -2.71473481       0.00000000
Si       0.00294849      -2.71397916       2.71459720       0.00000000
Si      -2.71507059       0.00030951       2.71366833       0.00000000
Si      -2.71425609      -2.71510317       0.00017201       0.00000000
Si      -2.71500543       2.71502172      -0.00003440       0.00000000
