10
Lattice="16.28999089631971 0.0 0.0 0.0 16.28999089631971 0.0 0.0 0.0 34.40246978574605" Properties=species:S:1:pos:R:3:initial_magmoms:R:1 pbc="T T T"
Si      -0.64633833      -1.18975644       1.96372848       0.00000000
Si       1.55297457      -1.56198294      -0.94200895       0.00000000
Si       0.85346568       2.25838044       0.32500031       0.00000000
Si      -2.12219604       0.39268674      -1.34100902       0.00000000
Si      -0.99362484      -3.28127841       0.92277796       0.00000000
Si      -0.88992270       1.62518814      -3.07038774       0.00000000
Si       0.28784430      -3.49249455      -1.02268279       0.00000000
Si       0.17133822       3.27901410      -1.74207324       0.00000000
Si       3.06625041      -2.14785279       0.81974251       0.00000000
Si      -2.43299295       0.06411744       2.97712259       0.00000000
