10
Lattice="16.28999089631971 0.0 0.0 0.0 16.28999089631971 0.0 0.0 0.0 34.40246978574605" Properties=species:S:1:pos:R:3:initial_magmoms:R:1 pbc="T T T"
Si       0.04776228       0.92874177      -2.11055830       0.00000000
Si       1.83176163      -1.40786325      -0.13186474       0.00000000
Si       1.06885206       1.77093477       1.08605218       0.00000000
Si      -2.11465377      -0.64742976       0.93746783       0.00000000
Si      -2.25623016       0.91947276      -2.59226195       0.00000000
Si      -0.14608872       3.57071913       0.12168160       0.00000000
Si      -1.67404185      -2.89644345       1.60453209       0.00000000
Si       3.41615961       1.61174889       0.72513566       0.00000000
Si       0.93533922       1.58343687       3.37956291       0.00000000
Si       0.87027696      -3.58782363      -1.19775706       0.00000000
