10
Lattice="16.28999089631971 0.0 0.0 0.0 16.28999089631971 0.0 0.0 0.0 34.40246978574605" Properties=species:S:1:pos:R:3:initial_magmoms:R:1 pbc="T T T"
Si      -1.15230573       1.50019497      -1.33921321       0.00000000
Si       1.33529130       1.36195803       1.35194557       0.00000000
Si      -1.38220650      -1.35052245       1.35239281       0.00000000
Si       1.41499827      -1.39049811      -1.35438471       0.00000000
Si      -2.48273772       0.08342109      -2.61911309       0.00000000
Si       2.69360037       0.01099575       2.71008703       0.00000000
Si      -0.02155167      -2.70335808       2.71022464       0.00000000
Si      -2.72104983      -2.69959509      -0.01616229       0.00000000
Si      -2.71201524       2.71124244       0.00832540       0.00000000
Si       2.69646741       2.72686455      -0.02785570       0.00000000
