10
Lattice="16.28999089631971 0.0 0.0 0.0 16.28999089631971 0.0 0.0 0.0 34.40246978574605" Properties=species:S:1:pos:R:3:initial_magmoms:R:1 pbc="T T T"
Si      -1.35638685      -1.35716877      -1.35769423       0.00000000
Si       1.35759231      -1.35694071       1.35704058       0.00000000
Si      -1.35793440       1.35695492       1.35738461       0.00000000
Si       1.35905841       1.35841594      -1.35700618       0.00000000
Si      -0.00187335       2.71123822      -2.71483802       0.00000000
Si       2.71371852       0.00417024      -2.71476921       0.00000000
Si       2.71546155      -0.00219915       2.71370274       0.00000000
Si      -2.71430496      -0.00127062       2.71507884       0.00000000
Si       2.71521720       2.71421278       0.00048163       0.00000000
Si      -0.00047241       2.71477804       2.71470041       0.00000000
