10
Lattice="16.28999089631971 0.0 0.0 0.0 16.28999089631971 0.0 0.0 0.0 34.40246978574605" Properties=species:S:1:pos:R:3:initial_magmoms:R:1 pbc="T T T"
Si       1.15230573      -1.50019497       1.33921321       0.00000000
Si      -1.33043199      -1.41677388      -1.27989988       0.00000000
Si      -1.55970951       1.21104747       1.34753861       0.00000000
Si       1.38336309       1.32470280      -1.58794118       0.00000000
Si      -0.58753795       1.87993116      -2.77224687       0.00000000
Si       0.64571931      -2.16539712      -2.62665553       0.00000000
Si      -2.35756115       0.25311402      -2.55437590       0.00000000
Si       2.48759703      -0.13823694       2.69115878       0.00000000
Si       2.56560984       2.67160887      -0.10014909       0.00000000
Si      -0.23286392       2.58220935       2.69184683       0.00000000
