10
Lattice="16.28999089631971 0.0 0.0 0.0 16.28999089631971 0.0 0.0 0.0 34.40246978574605" Properties=species:S:1:pos:R:3:initial_magmoms:R:1 pbc="T T T"
Si      -1.30424258       1.37735208      -1.29530187       0.00000000
Si       1.32684559       1.37116188       1.34430822       0.00000000
Si      -1.38204362      -1.34517933       1.34145281       0.00000000
Si       1.55970951      -1.21104747      -1.34753861       0.00000000
Si      -2.60879465       0.02624319      -2.64905427       0.00000000
Si       0.22927751      -2.62782135      -2.62743849       0.00000000
Si       0.07236898       2.53289952      -2.78947563       0.00000000
Si       2.68863909       0.01392795       2.70093597       0.00000000
Si      -0.02518265      -2.70216891       2.70207125       0.00000000
Si       2.71201524      -2.71124244      -0.00832540       0.00000000
