10
Lattice="16.28999089631971 0.0 0.0 0.0 16.28999089631971 0.0 0.0 0.0 34.40246978574605" Properties=species:S:1:pos:R:3:initial_magmoms:R:1 pbc="T T T"
Si      -0.79228044      -0.70283205       2.09628127       0.00000000
Si      -0.86159439      -0.57868596      -2.10832214       0.00000000
Si      -0.69242274       2.23591653       0.36621450       0.00000000
Si       2.36669265       0.16239501      -0.41695817       0.00000000
Si       0.43060986       2.96762653      -1.51350310       0.00000000
Si      -0.15384276       1.42350165      -3.23558849       0.00000000
Si       2.50403364       2.49297273      -0.37798015       0.00000000
Si       0.48213513       0.73489077       3.46133763       0.00000000
Si      -3.08788353       0.11474676       2.03893232       0.00000000
Si       0.27199413       2.86356276       2.40583486       0.00000000
