10
Lattice="16.28999089631971 0.0 0.0 0.0 16.28999089631971 0.0 0.0 0.0 34.40246978574605" Properties=species:S:1:pos:R:3:initial_magmoms:R:1 pbc="T T T"
Si       2.29403925      -0.45455616       0.09601735       0.00000000
Si      -1.05873597       0.14320539       2.09896466       0.00000000
Si      -1.27441557      -1.43772282      -1.36505636       0.00000000
Si      -0.21014100       2.12867199      -1.05550277       0.00000000
Si      -0.48213513      -0.73489077      -3.46133763       0.00000000
Si      -1.17455787       1.50102576      -3.09512313       0.00000000
Si       3.24501687       1.70782731      -0.19344520       0.00000000
Si      -1.45525086       2.46055304       2.35075648       0.00000000
Si      -1.62886968       3.47275011       0.24356962       0.00000000
Si       1.88884179       2.85638049      -1.74826569       0.00000000
