10
Lattice="16.28999089631971 0.0 0.0 0.0 16.28999089631971 0.0 0.0 0.0 34.40246978574605" Properties=species:S:1:pos:R:3:initial_magmoms:R:1 pbc="T T T"
Si       1.27249335      -1.34579576       1.49190178       0.00000000
Si      -0.97694388      -1.68441599      -1.42680680       0.00000000
Si       1.92521736       0.87334925      -1.16679963       0.00000000
Si      -1.42674336       1.36962410       1.46147622       0.00000000
Si      -1.03990473      -0.11677324      -3.41389457       0.00000000
Si       1.19021256       0.99159836      -3.42906607       0.00000000
Si       2.62397691      -2.69548742       0.13178217       0.00000000
Si      -2.73856077      -2.68616954       0.06267101       0.00000000
Si       2.63345769       0.00473550       2.84572229       0.00000000
Si       2.73233799       2.78455721       0.10195522       0.00000000
