10
Lattice="16.28999089631971 0.0 0.0 0.0 16.28999089631971 0.0 0.0 0.0 34.40246978574605" Properties=species:S:1:pos:R:3:initial_magmoms:R:1 pbc="T T T"
Si       1.45385417      -1.17838602       1.38012465       0.00000000
Si      -1.33863075      -1.37774304      -1.35697178       0.00000000
Si       1.37929059       1.33763706      -1.35810706       0.00000000
Si      -1.26677556       1.39820328       1.47025917       0.00000000
Si       0.58873689       2.32955145       2.94856853       0.00000000
Si      -2.59558344      -0.15273504       2.78804651       0.00000000
Si      -2.69348634      -0.01948284      -2.71538846       0.00000000
Si       0.02365308       2.69672805      -2.71394355       0.00000000
Si      -2.70922248       2.70194085       0.03605381       0.00000000
Si      -2.67582798      -2.74978295       0.01266012       0.00000000
