10
Lattice="16.28999089631971 0.0 0.0 0.0 16.28999089631971 0.0 0.0 0.0 34.40246978574605" Properties=species:S:1:pos:R:3:initial_magmoms:R:1 pbc="T T T"
Si       1.72443401      -1.42486512       1.00424306       0.00000000
Si      -2.37102579      -0.65567250      -0.28347651       0.00000000
Si       0.58461977       0.40141818      -2.45709457       0.00000000
Si       1.46489195       2.09668590      -0.79676165       0.00000000
Si       0.32091300      -2.23725068       2.69946011       0.00000000
Si      -1.26227952       2.55764403       2.45867708       0.00000000
Si      -3.46481784       1.42706916      -1.04917271       0.00000000
Si      -2.15034516      -2.40638177      -2.29412998       0.00000000
Si       3.00287321       2.08042848       1.60800674       0.00000000
Si      -0.28049751       3.90935565      -0.88865069       0.00000000
