10
Lattice="16.28999089631971 0.0 0.0 0.0 16.28999089631971 0.0 0.0 0.0 34.40246978574605" Properties=species:S:1:pos:R:3:initial_magmoms:R:1 pbc="T T T"
Si       1.38204362       1.34517933      -1.34145281       0.00000000
Si       1.35686097      -1.35698958       1.36061844       0.00000000
Si      -1.35759231       1.36076886       1.36020561       0.00000000
Si      -1.37676564      -1.35509994      -1.37601011       0.00000000
Si       0.07780104       2.72253141      -2.63675469       0.00000000
Si       0.09464490      -2.65181652      -2.74445512       0.00000000
Si       2.70888921       2.71634121       0.00285541       0.00000000
Si       2.71185236      -2.71658556       0.00261459       0.00000000
Si       2.71268315       0.00083079       2.71752141       0.00000000
Si      -0.00174303      -2.71476108       2.71765902       0.00000000
