10
Lattice="16.28999089631971 0.0 0.0 0.0 16.28999089631971 0.0 0.0 0.0 34.40246978574605" Properties=species:S:1:pos:R:3:initial_magmoms:R:1 pbc="T T T"
Si      -1.34956134       1.35619137      -1.36251058       0.00000000
Si       1.36822968       1.35034326       1.36581322       0.00000000
Si       1.36713825      -1.36065483      -1.36240737       0.00000000
Si      -1.36573731      -1.35544203       1.38758999       0.00000000
Si      -2.70192456       2.70352098      -0.00553880       0.00000000
Si      -2.71010214      -2.71699281      -0.00278660       0.00000000
Si      -2.70798444      -0.00358380      -2.71999839       0.00000000
Si       0.00702099       2.71093293      -2.72065204       0.00000000
Si       2.73108578       2.70231552      -0.00749974       0.00000000
Si       0.00698841      -2.71901277      -2.72020481       0.00000000
