10
Lattice="16.28999089631971 0.0 0.0 0.0 16.28999089631971 0.0 0.0 0.0 34.40246978574605" Properties=species:S:1:pos:R:3:initial_magmoms:R:1 pbc="T T T"
Si       0.13422960      -0.95068440       2.10722126       0.00000000
Si       0.91431129      -1.58850306      -1.43891851       0.00000000
Si      -2.30132088       0.35337897      -0.29111386       0.00000000
Si       1.18853210       2.02256640      -0.36366871       0.00000000
Si      -2.45814471       2.31321258      -1.43362052       0.00000000
Si      -0.28750221      -1.16120007      -3.47172718       0.00000000
Si       0.13947498      -3.64347027      -0.50392766       0.00000000
Si      -0.33246261       3.33312948      -1.69996459       0.00000000
Si       0.03507237       0.76958847       3.69974688       0.00000000
Si       3.17673638      -0.95671170      -1.81387123       0.00000000
