10
Lattice="16.28999089631971 0.0 0.0 0.0 16.28999089631971 0.0 0.0 0.0 34.40246978574605" Properties=species:S:1:pos:R:3:initial_magmoms:R:1 pbc="T T T"
Si       1.30455207       1.35110889       1.35375239       0.00000000
Si      -0.77421483       1.86906573      -1.20596966       0.00000000
Si       1.81094301      -0.98417664      -1.25286025       0.00000000
Si      -1.58340429      -1.39514076       1.18594737       0.00000000
Si       2.68116363       2.50665633      -0.14042137       0.00000000
Si      -1.70017101       0.87153129      -3.16230160       0.00000000
Si       2.60879465      -0.02624319       2.64905427       0.00000000
Si      -0.15001461      -2.72652246       2.61449697       0.00000000
Si      -0.12432528       2.70948312       2.63443321       0.00000000
Si      -2.85482250       0.00504990       2.61611044       0.00000000
