10
Lattice="16.28999089631971 0.0 0.0 0.0 16.28999089631971 0.0 0.0 0.0 34.40246978574605" Properties=species:S:1:pos:R:3:initial_magmoms:R:1 pbc="T T T"
Si       1.72758056       0.85561596      -1.61337353       0.00000000
Si      -1.74538946       1.81266975      -0.09188905       0.00000000
Si      -0.88027218      -1.69526772      -1.66033292       0.00000000
Si      -1.46489195      -2.09668590       0.79676165       0.00000000
Si       1.53798125      -0.01625742       2.40476838       0.00000000
Si       0.40235160       2.19664134      -3.02611174       0.00000000
Si      -2.33412635      -0.51688170      -3.04045758       0.00000000
Si       3.47251649       1.80467136      -0.37526235       0.00000000
Si       2.34633992      -2.36177307       2.14681852       0.00000000
Si       0.25954205      -3.52155102       1.80100470       0.00000000
