10
Lattice="16.28999089631971 0.0 0.0 0.0 16.28999089631971 0.0 0.0 0.0 34.40246978574605" Properties=species:S:1:pos:R:3:initial_magmoms:R:1 pbc="T T T"
Si      -1.51327584       0.58586985      -1.76175146       0.00000000
Si       1.88022831       1.16310600      -0.96357931       0.00000000
Si       0.40638663      -2.41013808      -0.06584636       0.00000000
Si      -0.20227293       0.87865002       2.55207984       0.00000000
Si      -2.77840611      -1.34464176      -1.84242530       0.00000000
Si       3.29464340       1.22041422       0.90213647       0.00000000
Si      -3.06625041       2.14785279      -0.81974251       0.00000000
Si      -2.39694318       0.21725973       3.03983833       0.00000000
Si       2.15669079      -2.57254938       1.94140126       0.00000000
Si      -0.25363530       3.20455251       2.23120783       0.00000000
