10
Lattice="16.28999089631971 0.0 0.0 0.0 16.28999089631971 0.0 0.0 0.0 34.40246978574605" Properties=species:S:1:pos:R:3:initial_magmoms:R:1 pbc="T T T"
Si      -1.35726439      -1.35734313       1.35649014       0.00000000
Si       1.35838028       1.35758478       1.35659335       0.00000000
Si      -1.35879565       1.35511359      -1.36144410       0.00000000
Si       1.35755437      -1.35551865      -1.36312982       0.00000000
Si      -2.71335802       2.71495229      -0.00027522       0.00000000
Si       0.00138453       2.71465907       2.71408116       0.00000000
Si       0.00109239      -2.71498431       2.71401236       0.00000000
Si      -2.71526395       0.00018168       2.71414997       0.00000000
Si      -2.71431913      -2.71531011      -0.00058484       0.00000000
Si       2.71581294      -0.00000547       2.71428758       0.00000000
