10
Lattice="16.28999089631971 0.0 0.0 0.0 16.28999089631971 0.0 0.0 0.0 34.40246978574605" Properties=species:S:1:pos:R:3:initial_magmoms:R:1 pbc="T T T"
Si       1.74493593       0.94905540       1.23811118       0.00000000
Si      -1.32522897       1.34102538      -1.41273821       0.00000000
Si       1.37054286      -1.39233888      -1.40737142       0.00000000
Si      -1.72758056      -0.85561596       1.61337353       0.00000000
Si       0.30364560       2.56718997       2.05922978       0.00000000
Si      -2.60785274      -2.55088368      -0.04695940       0.00000000
Si       2.65010607      -2.64197736       0.16526956       0.00000000
Si      -2.66391804       2.70594819       0.02005665       0.00000000
Si       2.71520091       2.67496461      -0.09845992       0.00000000
Si       0.02837718       2.68188786      -2.78439985       0.00000000
