10
Lattice="16.28999089631971 0.0 0.0 0.0 16.28999089631971 0.0 0.0 0.0 34.40246978574605" Properties=species:S:1:pos:R:3:initial_magmoms:R:1 pbc="T T T"
Si       0.77421483      -1.86906573       1.20596966       0.00000000
Si      -1.87672203       1.03231359       0.99192697       0.00000000
Si      -0.92595618      -0.99753444      -1.95633194       0.00000000
Si       1.59870060       1.83749571       0.13974291       0.00000000
Si       2.07876690      -0.51795684       2.55972205       0.00000000
Si      -2.32727085       2.39793687      -1.02653587       0.00000000
Si      -0.63026010       2.37224754       2.54408612       0.00000000
Si       3.45537846       0.63759060       1.06554829       0.00000000
Si      -2.88686493       0.49317975      -2.37617992       0.00000000
Si       2.58515784      -2.85324237      -0.04689059       0.00000000
