10
Lattice="16.28999089631971 0.0 0.0 0.0 16.28999089631971 0.0 0.0 0.0 34.40246978574605" Properties=species:S:1:pos:R:3:initial_magmoms:R:1 pbc="T T T"
Si      -1.35148356       1.34969166       1.36011960       0.00000000
Si       1.37657070      -1.39227372       1.34554327       0.00000000
Si      -1.68743223      -0.92310543      -1.41327287       0.00000000
Si       1.00431108       1.69869418      -1.34711688       0.00000000
Si       1.84563161       0.16601139      -2.96413707       0.00000000
Si      -2.61750978      -2.54539395       0.06223754       0.00000000
Si      -2.62397691       2.69548742      -0.13178217       0.00000000
Si       0.00948078       2.70022293       2.71394011       0.00000000
Si      -2.70435177      -0.00807984       2.71724275       0.00000000
Si       2.72583081      -0.01040931       2.71225439       0.00000000
