10
Lattice="16.28999089631971 0.0 0.0 0.0 16.28999089631971 0.0 0.0 0.0 34.40246978574605" Properties=species:S:1:pos:R:3:initial_magmoms:R:1 pbc="T T T"
Si       1.02613968       0.13126482       2.04440231       0.00000000
Si       1.44129033      -1.61813457      -0.82111861       0.00000000
Si      -1.61101258       1.60809993      -0.80752962       0.00000000
Si       2.41155531       0.10777464      -2.15768971       0.00000000
Si      -0.30364560      -2.56718997      -2.05922978       0.00000000
Si      -2.96756364       0.13875822      -2.03917313       0.00000000
Si      -0.19792350       2.95831287      -2.07601820       0.00000000
Si      -0.53033724       0.84330072       3.62966901       0.00000000
Si       1.43395983      -1.95509322       3.02339394       0.00000000
Si       1.07075799       1.48556655      -3.48008698       0.00000000
