10
Lattice="16.28999089631971 0.0 0.0 0.0 16.28999089631971 0.0 0.0 0.0 34.40246978574605" Properties=species:S:1:pos:R:3:initial_magmoms:R:1 pbc="T T T"
Si      -1.34899119       1.34861652      -1.35814146       0.00000000
Si       1.36661697      -1.36345671      -1.35487322       0.00000000
Si      -1.34317566      -1.36319607       1.38380572       0.00000000
Si       1.36427121       1.33674111       1.39529615       0.00000000
Si       2.19069549      -0.51416127       2.80173871       0.00000000
Si       0.43546428      -2.36587815       2.73719964       0.00000000
Si      -2.70814734       2.70735065       0.00051604       0.00000000
Si      -2.70686043      -0.00612504      -2.71480362       0.00000000
Si       0.00663003       2.70835677      -2.71432198       0.00000000
Si      -2.70120780      -2.72960127       0.00048163       0.00000000
