10
Lattice="16.28999089631971 0.0 0.0 0.0 16.28999089631971 0.0 0.0 0.0 34.40246978574605" Properties=species:S:1:pos:R:3:initial_magmoms:R:1 pbc="T T T"
Si       2.14338933       0.01391166      -0.93433720       0.00000000
Si      -1.35617508       1.14855318      -1.55482049       0.00000000
Si      -0.95097762      -2.16238347       0.28946254       0.00000000
Si       0.02873556       0.02415807       2.47687600       0.00000000
Si      -0.17897823      -2.32960032       2.51382427       0.00000000
Si      -3.45515787       0.42084468      -0.86205757       0.00000000
Si       3.28450383      -1.42043913       0.59643595       0.00000000
Si      -3.24501687      -1.70782731       0.19344520       0.00000000
Si       2.76154596       2.31654293      -0.76483614       0.00000000
Si      -1.22311836       0.05025465      -3.64587258       0.00000000
