10
Lattice="16.28999089631971 0.0 0.0 0.0 16.28999089631971 0.0 0.0 0.0 34.40246978574605" Properties=species:S:1:pos:R:3:initial_magmoms:R:1 pbc="T T T"
Si       0.75328381      -2.23619346       0.30755825       0.00000000
Si      -1.58926122       0.32824350       1.76519171       0.00000000
Si       1.85246459       1.59941736      -0.10840224       0.00000000
Si      -1.75030416       0.16241130      -2.00724762       0.00000000
Si      -2.37559581      -2.20573116      -0.92848878       0.00000000
Si      -0.90617265       2.64976398       2.33668586       0.00000000
Si      -1.18978155      -3.35979621       0.96247844       0.00000000
Si       1.88955692      -2.68294671      -1.77915912       0.00000000
Si      -1.72963215      -1.93031613       2.75285277       0.00000000
Si      -2.15669079       2.57254938      -1.94140126       0.00000000
