10
Lattice="16.28999089631971 0.0 0.0 0.0 16.28999089631971 0.0 0.0 0.0 34.40246978574605" Properties=species:S:1:pos:R:3:initial_magmoms:R:1 pbc="T T T"
Si      -2.13794195       0.60194808       0.77842512       0.00000000
Si       0.77157585       1.79470188      -1.39932124       0.00000000
Si       1.45722195      -0.12973356       1.92509448       0.00000000
Si      -0.14973768      -2.37733002      -0.67177740       0.00000000
Si      -1.38358463       1.83591558       2.66780982       0.00000000
Si       1.47667221       0.65513493      -3.33762628       0.00000000
Si       3.57664869      -0.50653755       1.00262614       0.00000000
Si      -3.32647406      -1.42061832       1.14209383       0.00000000
Si      -2.41216276      -3.00912138      -0.29682468       0.00000000
Si       0.45515889      -1.33190298       3.69582499       0.00000000
