10
Lattice="16.28999089631971 0.0 0.0 0.0 16.28999089631971 0.0 0.0 0.0 34.40246978574605" Properties=species:S:1:pos:R:3:initial_magmoms:R:1 pbc="T T T"
Si      -1.32684559      -1.37116188      -1.34430822       0.00000000
Si      -1.35224172       1.35868374       1.35748781       0.00000000
Si       1.36179350      -1.35723393       1.35662775       0.00000000
Si       1.37707352       1.35135324      -1.36353577       0.00000000
Si      -2.63108817       0.00619020      -2.63961010       0.00000000
Si       0.23286392      -2.58220935      -2.69184683       0.00000000
Si      -2.71025757      -0.00074934       2.71456280       0.00000000
Si      -2.70888921      -2.71634121      -0.00285541       0.00000000
Si      -2.71335267       2.71451673       0.00199534       0.00000000
Si       0.00396824       2.71386513       2.71476921       0.00000000
