10
Lattice="16.28999089631971 0.0 0.0 0.0 16.28999089631971 0.0 0.0 0.0 34.40246978574605" Properties=species:S:1:pos:R:3:initial_magmoms:R:1 pbc="T T T"
Si       1.35655105       1.46934171       1.23164351       0.00000000
Si      -1.37304437       1.32928029      -1.43286367       0.00000000
Si       1.33868907      -1.36492281      -1.43279486       0.00000000
Si      -0.80905199      -1.74889440       1.50142783       0.00000000
Si       2.96756364      -0.13875822       2.03917313       0.00000000
Si      -2.66456444      -2.68024257       0.02311847       0.00000000
Si       2.66391804      -2.70594819      -0.02005665       0.00000000
Si      -2.30652653       3.04618113      -0.06749768       0.00000000
Si      -0.01018827       2.68125255      -2.80617663       0.00000000
Si       2.69229522      -0.02406033      -2.80445650       0.00000000
