10
Lattice="16.28999089631971 0.0 0.0 0.0 16.28999089631971 0.0 0.0 0.0 34.40246978574605" Properties=species:S:1:pos:R:3:initial_magmoms:R:1 pbc="T T T"
Si       1.55647692      -0.71203590      -1.58526669       0.00000000
Si       1.50855174      -0.29278017       1.85326208       0.00000000
Si      -1.85246459      -1.59941736       0.10840224       0.00000000
Si      -0.71451198       2.19354624      -0.93086255       0.00000000
Si       0.62553600       3.30250428       0.72155780       0.00000000
Si       1.96429707      -2.79839394      -0.60627506       0.00000000
Si       3.49560594       0.72036009       1.09135016       0.00000000
Si      -0.70077951       2.43862929       2.74535303       0.00000000
Si       0.53033724      -0.84330072      -3.62966901       0.00000000
Si       2.10924549      -2.60045415       1.79605074       0.00000000
