10
Lattice="16.28999089631971 0.0 0.0 0.0 16.28999089631971 0.0 0.0 0.0 34.40246978574605" Properties=species:S:1:pos:R:3:initial_magmoms:R:1 pbc="T T T"
Si       0.70509636      -1.13956695      -1.93830504       0.00000000
Si       1.73822445       1.31284368       0.95707724       0.00000000
Si      -0.77157585      -1.79470188       1.39932124       0.00000000
Si      -1.50423489       1.59184251      -1.04621409       0.00000000
Si       3.59486091      -0.36145881       1.11591354       0.00000000
Si      -3.56209262       0.20355984      -1.34647902       0.00000000
Si       2.69215056      -0.12642669      -2.70021696       0.00000000
Si      -2.90951780      -1.19275380       2.17774636       0.00000000
Si       2.19313899       3.09552354      -0.56626497       0.00000000
Si       0.77558319       2.61221553       2.71518204       0.00000000
