10
Lattice="16.28999089631971 0.0 0.0 0.0 16.28999089631971 0.0 0.0 0.0 34.40246978574605" Properties=species:S:1:pos:R:3:initial_magmoms:R:1 pbc="T T T"
Si       0.74001886       1.09219563       1.94542635       0.00000000
Si      -2.12868990      -0.96511734       0.33741961       0.00000000
Si      -0.22087285       1.52182809      -1.83661128       0.00000000
Si       1.61787067      -1.64599047      -0.80859610       0.00000000
Si       3.04060669       1.10799693       1.44958328       0.00000000
Si      -2.02953267      -2.68539021      -1.25510601       0.00000000
Si       1.85840881       2.71264338      -1.49950129       0.00000000
Si       0.20628679      -3.51476298      -0.98294792       0.00000000
Si       2.61993373      -0.44382105      -2.57932661       0.00000000
Si       3.43112686       1.10454345      -0.90471666       0.00000000
