10
Lattice="16.28999089631971 0.0 0.0 0.0 16.28999089631971 0.0 0.0 0.0 34.40246978574605" Properties=species:S:1:pos:R:3:initial_magmoms:R:1 pbc="T T T"
Si      -1.60075055       1.73838735      -0.05528480       0.00000000
Si      -0.75435732      -1.23396750      -1.88938470       0.00000000
Si       0.22087285      -1.52182809       1.83661128       0.00000000
Si       2.07928166       1.19081529       0.33710999       0.00000000
Si       1.38358463      -1.83591558      -2.66780982       0.00000000
Si       2.84080658      -1.96564914      -0.74271534       0.00000000
Si      -0.20188849       3.56531085       0.41310509       0.00000000
Si       1.43949191       2.80420947       1.94236453       0.00000000
Si       3.65199971      -0.41728464       0.93189462       0.00000000
Si       1.83874352      -3.16781856       1.02801518       0.00000000
