10
Lattice="16.28999089631971 0.0 0.0 0.0 16.28999089631971 0.0 0.0 0.0 34.40246978574605" Properties=species:S:1:pos:R:3:initial_magmoms:R:1 pbc="T T T"
Si       1.06685491       0.53185221      -2.03772823       0.00000000
Si       1.97090104      -0.55522836       1.18430568       0.00000000
Si      -1.77002320      -1.62681714       0.21787096       0.00000000
Si      -0.89980258       1.86401583       1.33030985       0.00000000
Si       0.58753795      -1.87993116       2.77224687       0.00000000
Si       0.92897635       2.95059141      -1.68689165       0.00000000
Si      -0.74289405      -3.29670504       1.49234699       0.00000000
Si      -2.27641414       0.70846839       2.82448361       0.00000000
Si      -3.58096621      -0.64264050       1.47073121       0.00000000
Si       3.79051033      -0.90282438      -0.67872671       0.00000000
