10
Lattice="16.28999089631971 0.0 0.0 0.0 16.28999089631971 0.0 0.0 0.0 34.40246978574605" Properties=species:S:1:pos:R:3:initial_magmoms:R:1 pbc="T T T"
Si       1.35860229      -1.35622395      -1.35569888       0.00000000
Si       1.35682668       1.35819504       1.35759102       0.00000000
Si      -1.35859089      -1.35702216       1.35776303       0.00000000
Si      -1.35933371       1.36049193      -1.36223536       0.00000000
Si       2.71256193      -2.71353933       0.00010321       0.00000000
Si      -2.71480085      -2.71220355       0.00048163       0.00000000
Si       2.71440270       0.00148239       2.71487242       0.00000000
Si      -0.00128691      -2.71518462       2.71463160       0.00000000
Si      -2.71579570       0.00102627       2.71490682       0.00000000
Si       2.71363707       2.71749459       0.00072245       0.00000000
