10
Lattice="16.28999089631971 0.0 0.0 0.0 16.28999089631971 0.0 0.0 0.0 34.40246978574605" Properties=species:S:1:pos:R:3:initial_magmoms:R:1 pbc="T T T"
Si       1.35007610      -1.34636850       1.35941435       0.00000000
Si       1.35659210       1.35795667      -1.35700618       0.00000000
Si      -1.35812845      -1.35702216      -1.35728140       0.00000000
Si      -1.35487735       1.35545581       1.36323303       0.00000000
Si       2.71252283       2.71432518       0.00051604       0.00000000
Si      -2.71449785      -2.71366965       0.00230497       0.00000000
Si       2.71449392       0.00014661      -2.71459720       0.00000000
Si       2.71470569      -2.71474479       0.00230497       0.00000000
Si      -0.00092364      -2.71507059      -2.71442519       0.00000000
Si      -0.00084056       2.71554693      -2.71470041       0.00000000
