10
Lattice="16.28999089631971 0.0 0.0 0.0 16.28999089631971 0.0 0.0 0.0 34.40246978574605" Properties=species:S:1:pos:R:3:initial_magmoms:R:1 pbc="T T T"
Si      -2.26006875       0.40899303       0.37921864       0.00000000
Si       0.76888474       1.73661174      -1.39691307       0.00000000
Si       0.97329166       0.48472524       2.13780507       0.00000000
Si       0.62620063      -1.97105742      -1.31658325       0.00000000
Si      -2.84136111      -1.44539541       1.69442579       0.00000000
Si       1.14702451       2.87867106       1.97566614       0.00000000
Si       3.12933832       1.65037248      -1.07366728       0.00000000
Si      -2.56377951       2.49707781       1.48088954       0.00000000
Si       2.90601871      -0.95068440       2.44481288       0.00000000
Si      -3.45749778       0.85750560      -1.62830421       0.00000000
