10
Lattice="16.28999089631971 0.0 0.0 0.0 16.28999089631971 0.0 0.0 0.0 34.26581377546328" Properties=species:S:1:pos:R:3:initial_magmoms:R:1 pbc="T T T"
Si      -1.30335801      -1.03707027       1.61954033       0.00000000
Si       0.81186102      -1.74420288      -1.35209550       0.00000000
Si       1.76795370       1.12775670       1.09866540       0.00000000
Si      -1.44697228       0.90212391      -1.67816917       0.00000000
Si       1.13572251       3.29003333       0.38432558       0.00000000
Si      -2.96348399      -0.94871331      -1.76400508       0.00000000
Si      -3.28420151      -1.54553004       0.49068673       0.00000000
Si       1.44829503      -0.66777597      -3.34794321       0.00000000
Si      -0.50205780      -3.24311094       1.90319289       0.00000000
Si       2.58743844      -2.89478187      -0.33248138       0.00000000
