10
Lattice="16.28999089631971 0.0 0.0 0.0 16.28999089631971 0.0 0.0 0.0 34.26581377546328" Properties=species:S:1:pos:R:3:initial_magmoms:R:1 pbc="T T T"
Si       1.34987085       1.35793440       1.37941908       0.00000000
Si      -1.36515087      -1.35923434       1.38126943       0.00000000
Si      -1.22096808       1.36464588      -1.50822777       0.00000000
Si       1.48862907      -1.29271250      -1.40979916       0.00000000
Si       2.71454931       2.70251100      -0.01391535       0.00000000
Si      -2.71562445      -2.71201526       0.00960814       0.00000000
Si      -2.71842633       2.71257822      -0.01261668       0.00000000
Si       2.70860346      -2.73072023       0.00533862       0.00000000
Si       2.70573642       0.00131949       2.73826495       0.00000000
Si      -0.00957852      -2.71347163       2.73939572       0.00000000
