10
Lattice="16.28999089631971 0.0 0.0 0.0 16.28999089631971 0.0 0.0 0.0 34.26581377546328" Properties=species:S:1:pos:R:3:initial_magmoms:R:1 pbc="T T T"
Si       0.22118562       1.28373964       1.93074262       0.00000000
Si       0.58305168       0.97002845      -2.04491638       0.00000000
Si      -2.28046968      -0.61161068      -0.18846208       0.00000000
Si       1.49494959      -1.83596708       0.08210094       0.00000000
Si      -0.60626493      -0.52242293      -3.51437236       0.00000000
Si      -0.37721124      -0.27834986       3.57522848       0.00000000
Si       2.90074401       0.61550592      -2.17396150       0.00000000
Si      -2.35602270      -2.67126941       0.99278398       0.00000000
Si      -2.76894162      -0.30548900      -2.54053738       0.00000000
Si      -0.70929918      -2.46725345       2.79472133       0.00000000
