10
Lattice="16.28999089631971 0.0 0.0 0.0 16.28999089631971 0.0 0.0 0.0 34.26581377546328" Properties=species:S:1:pos:R:3:initial_magmoms:R:1 pbc="T T T"
Si      -1.35664749       1.35713619       1.35692698       0.00000000
Si       1.35729909      -1.35747828       1.35737244       0.00000000
Si       1.35705474       1.35790182      -1.35747524       0.00000000
Si      -1.35791811      -1.35765747      -1.35805776       0.00000000
Si       2.71406061       0.00115659       2.71306585       0.00000000
Si       0.00140094       2.71401174       2.71412809       0.00000000
Si      -2.71508688      -0.00043983       2.71354558       0.00000000
Si      -2.71451673       2.71438641       0.00000000       0.00000000
Si       2.71492398       2.71477737       0.00020559       0.00000000
Si      -0.00079821      -2.71648782       2.71323718       0.00000000
