10
Lattice="16.28999089631971 0.0 0.0 0.0 16.28999089631971 0.0 0.0 0.0 34.26581377546328" Properties=species:S:1:pos:R:3:initial_magmoms:R:1 pbc="T T T"
Si       0.09552456      -1.05619473       2.13904462       0.00000000
Si      -2.34838269       0.45483309      -0.23163703       0.00000000
Si       1.05078645       2.16411021       0.21765657       0.00000000
Si       0.93094092      -1.69451838      -1.70496505       0.00000000
Si      -2.68679115       2.06335656       1.56252198       0.00000000
Si       3.07708326      -2.13692220      -0.64008576       0.00000000
Si      -3.42391365      -1.74153132      -0.06113025       0.00000000
Si      -0.68053104      -3.32563608       2.09172351       0.00000000
Si       4.01242248       0.07794765      -0.04745818       0.00000000
Si       2.23244676      -1.57569912       2.95792950       0.00000000
