10
Lattice="16.28999089631971 0.0 0.0 0.0 16.28999089631971 0.0 0.0 0.0 34.26581377546328" Properties=species:S:1:pos:R:3:initial_magmoms:R:1 pbc="T T T"
Si      -1.37116188      -1.34780202       1.34394023       0.00000000
Si      -1.35891180       1.35643572      -1.35846895       0.00000000
Si       1.35733167      -1.35874890      -1.35959972       0.00000000
Si       1.36021500       1.35672894       1.38766344       0.00000000
Si      -0.00128691      -2.67802713       2.69816022       0.00000000
Si      -2.73825126      -0.01479132       2.66643005       0.00000000
Si       2.71370223       2.71322982       0.00106224       0.00000000
Si       2.71379997      -0.00071676      -2.71693789       0.00000000
Si      -0.00109143       2.71448415      -2.71645817       0.00000000
Si       2.71528236      -2.71699281      -0.00304966       0.00000000
