10
Lattice="16.28999089631971 0.0 0.0 0.0 16.28999089631971 0.0 0.0 0.0 34.26581377546328" Properties=species:S:1:pos:R:3:initial_magmoms:R:1 pbc="T T T"
Si       1.22346045       0.24488757       2.01174705       0.00000000
Si       1.56028878      -0.23752775      -1.77945897       0.00000000
Si      -1.51992216       1.82899233      -0.14110670       0.00000000
Si      -0.95210163      -2.18612519       0.13240318       0.00000000
Si      -1.95667335       0.98373681      -2.46254835       0.00000000
Si       0.09946674      -0.10725336      -3.81039489       0.00000000
Si       3.06756990      -1.27650232       1.87211378       0.00000000
Si       1.99951605       2.51432892       2.05906817       0.00000000
Si      -2.12017282      -2.27334185       2.22282458       0.00000000
Si       2.83493241       1.87600527      -1.78494150       0.00000000
