10
Lattice="16.28999089631971 0.0 0.0 0.0 16.28999089631971 0.0 0.0 0.0 34.26581377546328" Properties=species:S:1:pos:R:3:initial_magmoms:R:1 pbc="T T T"
Si       1.35734796       1.35679410       1.35675565       0.00000000
Si       1.35744570      -1.35817875      -1.35788643       0.00000000
Si      -1.35812988       1.35782037      -1.35771510       0.00000000
Si      -1.35782037      -1.35804843       1.35798922       0.00000000
Si      -2.71404432      -0.00034209      -2.71512180       0.00000000
Si      -2.71497285       2.71490850      -0.00041119       0.00000000
Si       2.71520091       2.71481201      -0.00017133       0.00000000
Si       2.71489140      -2.71520091      -0.00047972       0.00000000
Si      -2.71518462      -2.71511946      -0.00027413       0.00000000
Si       2.71524978      -0.00079821      -2.71522460       0.00000000
