10
Lattice="16.28999089631971 0.0 0.0 0.0 16.28999089631971 0.0 0.0 0.0 34.26581377546328" Properties=species:S:1:pos:R:3:initial_magmoms:R:1 pbc="T T T"
Si       1.38685567      -1.30202942       1.38743043       0.00000000
Si       1.18331212       1.62589350      -1.24826660       0.00000000
Si      -1.34593994       1.41482397       1.37381661       0.00000000
Si      -0.77534373      -1.80325643      -1.41330254       0.00000000
Si       0.36750892      -1.05285039      -3.51924637       0.00000000
Si       2.45487694      -2.88261554      -0.05815255       0.00000000
Si      -2.65978300      -2.71432355      -0.13958530       0.00000000
Si       0.02197684      -2.66074574       2.75720710       0.00000000
Si      -2.69633776       0.05492336       2.75741269       0.00000000
Si       2.73732925       0.05075149       2.75909172       0.00000000
