10
Lattice="16.28999089631971 0.0 0.0 0.0 16.28999089631971 0.0 0.0 0.0 34.26581377546328" Properties=species:S:1:pos:R:3:initial_magmoms:R:1 pbc="T T T"
Si      -1.86724125      -1.04630670      -0.81778837       0.00000000
Si      -0.67212540       1.33674111       1.79672895       0.00000000
Si       1.14396525      -1.92248064       0.80264287       0.00000000
Si       1.10131803       2.76271884      -0.54177708       0.00000000
Si       1.59281991       2.10572685       1.62879210       0.00000000
Si      -0.95707008      -0.84712887      -2.94151616       0.00000000
Si      -1.36197432      -3.26761110      -0.02110775       0.00000000
Si       3.30841755      -1.28456424       0.40433683       0.00000000
Si       2.14252596       1.86647562      -2.48862465       0.00000000
Si       3.56558778       0.69667443       1.68766080       0.00000000
