10
Lattice="16.28999089631971 0.0 0.0 0.0 16.28999089631971 0.0 0.0 0.0 34.26581377546328" Properties=species:S:1:pos:R:3:initial_magmoms:R:1 pbc="T T T"
Si      -0.18985995       0.98814067      -2.15371040       0.00000000
Si      -2.16267669       0.21693393       0.97383497       0.00000000
Si       1.18931661       1.49245137       1.46945598       0.00000000
Si       0.54004608      -2.40324741       0.05732674       0.00000000
Si       0.60626493       0.52242293       3.51437236       0.00000000
Si      -2.79490788       2.37921056       0.25949515       0.00000000
Si      -1.67420475      -0.08918775       3.32591028       0.00000000
Si      -0.21739005      -0.80961300      -3.64071048       0.00000000
Si      -2.03396940       2.50953056      -2.01407713       0.00000000
Si       3.50700894       1.13792885       1.34041085       0.00000000
