10
Lattice="16.28999089631971 0.0 0.0 0.0 16.28999089631971 0.0 0.0 0.0 34.26581377546328" Properties=species:S:1:pos:R:3:initial_magmoms:R:1 pbc="T T T"
Si       1.75000212       0.98288973      -1.12830535       0.00000000
Si      -1.53176499       1.74874779      -0.40015640       0.00000000
Si       0.13512555      -0.49568841       2.31311505       0.00000000
Si      -0.50808510      -2.11568818      -0.94162509       0.00000000
Si      -2.70495450      -1.26553752      -1.18470691       0.00000000
Si      -3.35562597       0.50443614       0.29451483       0.00000000
Si       2.40365466      -0.07861554       2.66043353       0.00000000
Si       0.09058869      -3.55775948       0.83146044       0.00000000
Si      -0.52918065       3.61510938       0.56483799       0.00000000
Si       0.74417607       2.03615226      -2.99767786       0.00000000
