10
Lattice="16.28999089631971 0.0 0.0 0.0 16.28999089631971 0.0 0.0 0.0 34.26581377546328" Properties=species:S:1:pos:R:3:initial_magmoms:R:1 pbc="T T T"
Si      -2.16774972       0.67737078      -0.50281683       0.00000000
Si       1.46144106       1.85899851       0.17509841       0.00000000
Si       0.60476625      -0.97313202      -2.17752515       0.00000000
Si       0.37186812      -1.13823117       2.15676006       0.00000000
Si      -1.20795074       2.07736596      -2.17303633       0.00000000
Si       1.19627244       2.25966735      -2.20223082       0.00000000
Si       3.30362829       0.44689986       0.61233043       0.00000000
Si      -2.92877000      -1.62316818      -0.67239844       0.00000000
Si       2.67066405      -1.49895693       1.87656834       0.00000000
Si       1.34812782       2.18163825       2.55989758       0.00000000
