10
Lattice="16.28999089631971 0.0 0.0 0.0 16.28999089631971 0.0 0.0 0.0 34.26581377546328" Properties=species:S:1:pos:R:3:initial_magmoms:R:1 pbc="T T T"
Si       1.35694071      -1.35527913       1.36408854       0.00000000
Si      -1.36016613       1.36096434       1.36364309       0.00000000
Si       1.37223702       1.34197020      -1.37207591       0.00000000
Si      -1.35034326      -1.36826226      -1.39035330       0.00000000
Si       0.02673189       2.73253347      -2.67235462       0.00000000
Si       2.71107954      -2.71096551       0.00788114       0.00000000
Si      -2.71502172      -2.71283886       0.00298113       0.00000000
Si       2.71329498       2.71624347      -0.00023986       0.00000000
Si      -2.71521720       2.71774215       0.00448882       0.00000000
Si      -0.00146610      -2.71265967       2.72046727       0.00000000
