10
Lattice="16.28999089631971 0.0 0.0 0.0 16.28999089631971 0.0 0.0 0.0 34.26581377546328" Properties=species:S:1:pos:R:3:initial_magmoms:R:1 pbc="T T T"
Si      -1.65373541      -1.52384139       0.49812241       0.00000000
Si       1.03588110       0.16600895       2.10344242       0.00000000
Si      -1.31063543       1.83599459      -0.73757205       0.00000000
Si       1.26175824      -0.98856828      -1.77712889       0.00000000
Si       2.81553102      -1.37066652       1.51561206       0.00000000
Si      -0.27622464      -3.30365421       1.12947038       0.00000000
Si       3.15574767       0.38741937      -1.88472361       0.00000000
Si       1.99000269       2.32093160       2.09158644       0.00000000
Si       1.61813457       3.45916277      -0.06517361       0.00000000
Si      -0.06923087      -1.24454934      -3.64872869       0.00000000
