10
Lattice="16.28999089631971 0.0 0.0 0.0 16.28999089631971 0.0 0.0 0.0 34.26581377546328" Properties=species:S:1:pos:R:3:initial_magmoms:R:1 pbc="T T T"
Si       1.87217712       1.36350558      -0.27529170       0.00000000
Si      -2.31982632       0.12193065       0.28680502       0.00000000
Si       1.00582605      -1.05326253       1.86937252       0.00000000
Si       0.35274366      -1.75966209      -1.57657097       0.00000000
Si       2.62428642      -1.89169254      -1.14913897       0.00000000
Si      -2.27594106      -0.28740447       2.59752146       0.00000000
Si       2.00891538       0.82183050       2.81894728       0.00000000
Si       0.57708954       2.64730419       2.46686584       0.00000000
Si      -0.74417607      -2.03615226       2.99767786       0.00000000
Si       3.54978648       0.25472673      -1.35531649       0.00000000
