10
Lattice="16.28999089631971 0.0 0.0 0.0 16.28999089631971 0.0 0.0 0.0 34.26581377546328" Properties=species:S:1:pos:R:3:initial_magmoms:R:1 pbc="T T T"
Si       0.75157173      -1.68438600      -1.41870828       0.00000000
Si      -2.24340993       0.62675775       0.23499508       0.00000000
Si       1.15973397       1.72620243      -1.12265148       0.00000000
Si       0.01537776      -0.57632391       2.39298871       0.00000000
Si      -2.18261565       0.37724382       2.60523128       0.00000000
Si       3.02010084      -1.26731313      -1.07138980       0.00000000
Si      -3.08109060      -1.15574292      -1.11853958       0.00000000
Si       2.15731728       0.31967496       2.80554934       0.00000000
Si       0.93426408       3.47942997       0.33008277       0.00000000
Si       3.47985351      -0.88643664       1.22438674       0.00000000
