10
Lattice="16.28999089631971 0.0 0.0 0.0 16.28999089631971 0.0 0.0 0.0 34.26581377546328" Properties=species:S:1:pos:R:3:initial_magmoms:R:1 pbc="T T T"
Si      -1.91650221      -0.75698001       1.10305143       0.00000000
Si      -1.24177041       1.28909286      -1.60004307       0.00000000
Si       0.94905540       1.78678494       1.50392741       0.00000000
Si       1.46772900      -1.40589216      -1.56807305       0.00000000
Si      -2.54156580       2.62317870      -0.15786269       0.00000000
Si       2.62386288       2.68148061      -0.07099881       0.00000000
Si      -2.64363894      -2.67599088      -0.09824014       0.00000000
Si      -0.74974725       3.63574881       1.08612411       0.00000000
Si      -2.60205057      -0.06155991      -2.97009387       0.00000000
Si      -3.63288177       0.94165974       1.24408960       0.00000000
