10
Lattice="16.28999089631971 0.0 0.0 0.0 16.28999089631971 0.0 0.0 0.0 34.26581377546328" Properties=species:S:1:pos:R:3:initial_magmoms:R:1 pbc="T T T"
Si       2.06431767       0.57001968      -1.13197179       0.00000000
Si       0.17148483       0.60023763       2.36992780       0.00000000
Si      -1.44736650       1.76679711      -0.90084875       0.00000000
Si      -0.90950328      -2.21399019       0.56696247       0.00000000
Si      -0.80938494      -1.22958549       3.45005539       0.00000000
Si       2.34444051       2.91462309      -0.50507838       0.00000000
Si       2.61032589      -1.88480187       1.99111902       0.00000000
Si       3.67494255      -0.91080648      -0.07983939       0.00000000
Si      -3.61181880       1.12888071      -0.50254271       0.00000000
Si      -0.66720582       2.86917399       2.55379826       0.00000000
