10
Lattice="16.28999089631971 0.0 0.0 0.0 16.28999089631971 0.0 0.0 0.0 34.26581377546328" Properties=species:S:1:pos:R:3:initial_magmoms:R:1 pbc="T T T"
Si       0.98086977       1.82982312      -1.08012759       0.00000000
Si       1.56926457      -1.72356345      -0.36328636       0.00000000
Si      -2.16542970      -0.28577547      -0.99689588       0.00000000
Si       0.23043834       0.11974779       2.40258314       0.00000000
Si      -0.10011834      -0.98440470      -2.88309292       0.00000000
Si       3.13061220       1.26363159      -0.09344293       0.00000000
Si      -1.60612884      -1.28570454       2.83954104       0.00000000
Si      -3.16443024      -1.15774659       1.03246381       0.00000000
Si       0.80938494       1.22958549      -3.45005539       0.00000000
Si       3.41971083      -0.65521638      -1.45893637       0.00000000
