10
Lattice="16.28999089631971 0.0 0.0 0.0 16.28999089631971 0.0 0.0 0.0 34.26581377546328" Properties=species:S:1:pos:R:3:initial_magmoms:R:1 pbc="T T T"
Si      -0.98086977      -1.82982312       1.08012759       0.00000000
Si      -0.83869065       2.26893636       0.18387046       0.00000000
Si       2.14974243      -0.56619153       0.98668466       0.00000000
Si      -0.17148483      -0.60023763      -2.36992780       0.00000000
Si       2.43884106      -2.48503950      -0.37880878       0.00000000
Si      -1.08098811      -2.81422782      -1.80296533       0.00000000
Si       1.15960365       3.20701230       0.93956914       0.00000000
Si       0.58839480      -3.55338657       0.71684122       0.00000000
Si      -3.14629947      -2.11559859       0.08323171       0.00000000
Si      -1.61885133       1.16655948      -3.27077655       0.00000000
