10
Lattice="16.28999089631971 0.0 0.0 0.0 16.28999089631971 0.0 0.0 0.0 34.26581377546328" Properties=species:S:1:pos:R:3:initial_magmoms:R:1 pbc="T T T"
Si      -1.33863075      -1.34573319      -1.36506855       0.00000000
Si      -1.35350352       1.35890611       1.35942839       0.00000000
Si       1.36101321      -1.35703845       1.35840041       0.00000000
Si       1.37233476       1.35242838      -1.38972624       0.00000000
Si       0.08519670      -2.63350656      -2.78490075       0.00000000
Si      -2.70827766       2.71453858       0.00143916       0.00000000
Si      -2.71181259       0.00127062       2.71621831       0.00000000
Si      -2.71498914      -2.71345788      -0.00082238       0.00000000
Si       0.00270414      -2.71384884       2.71673230       0.00000000
Si      -2.61894330       0.04155579      -2.80927403       0.00000000
