10
Lattice="16.28999089631971 0.0 0.0 0.0 16.28999089631971 0.0 0.0 0.0 34.26581377546328" Properties=species:S:1:pos:R:3:initial_magmoms:R:1 pbc="T T T"
Si       1.35415512      -1.35571896      -1.35973678       0.00000000
Si      -1.35780408      -1.35738054       1.35733817       0.00000000
Si       1.35733167       1.35900954       1.35730391       0.00000000
Si      -1.35772263       1.35879777      -1.36001091       0.00000000
Si      -0.00491958      -2.70948312      -2.71553985       0.00000000
Si       2.71417464      -2.71308321       0.00010280       0.00000000
Si      -0.00035838      -2.71440270       2.71474488       0.00000000
Si       2.71528236       0.00027693       2.71488194       0.00000000
Si      -2.71524978       0.00079821       2.71522460       0.00000000
Si      -0.00004887       2.71561022       2.71505327       0.00000000
