10
Lattice="16.28999089631971 0.0 0.0 0.0 16.28999089631971 0.0 0.0 0.0 34.26581377546328" Properties=species:S:1:pos:R:3:initial_magmoms:R:1 pbc="T T T"
Si       1.35425286      -1.35728280       1.35870881       0.00000000
Si       1.35755973       1.35716877      -1.35634446       0.00000000
Si      -1.35808101      -1.35751086      -1.35648153       0.00000000
Si      -1.35817875       1.35643572       1.36151861       0.00000000
Si       2.71362078       2.71388142       0.00006853       0.00000000
Si       2.71412577       0.00078192      -2.71340851       0.00000000
Si      -0.00102627      -2.71477737      -2.71306585       0.00000000
Si       2.71803537       0.00316026       2.71135256       0.00000000
Si      -2.71552671      -0.00048870      -2.71388823       0.00000000
Si       2.71526607      -2.71422351       0.00051399       0.00000000
