10
Lattice="16.28999089631971 0.0 0.0 0.0 16.28999089631971 0.0 0.0 0.0 34.26581377546328" Properties=species:S:1:pos:R:3:initial_magmoms:R:1 pbc="T T T"
Si      -1.35145098      -1.36159965      -1.37848019       0.00000000
Si       1.36708938       1.35154872      -1.37878859       0.00000000
Si       1.43907489      -1.34545626       1.35329481       0.00000000
Si      -1.20003543       1.41694918       1.58219057       0.00000000
Si       0.76519017       2.15244887       2.88257893       0.00000000
Si       2.57935860       0.23118768       2.77906185       0.00000000
Si      -2.70493821      -2.71810053       0.00812100       0.00000000
Si      -2.70829395       2.71753105       0.02028537       0.00000000
Si       2.72476314      -2.71487511      -0.02864624       0.00000000
Si      -2.70889668      -0.00355122      -2.73924495       0.00000000
