10
Lattice="16.28999089631971 0.0 0.0 0.0 16.28999089631971 0.0 0.0 0.0 34.26581377546328" Properties=species:S:1:pos:R:3:initial_magmoms:R:1 pbc="T T T"
Si       1.17959148      -1.37702628      -1.56104855       0.00000000
Si      -0.46910313      -1.57216419       1.75814562       0.00000000
Si      -1.63499472       1.57887567      -1.13481585       0.00000000
Si       1.60536321       1.17690363       1.70489652       0.00000000
Si      -0.21193290       0.40907448       3.04146960       0.00000000
Si       2.11623390       0.37203102      -2.88137962       0.00000000
Si      -2.67620265       2.47511889       0.81203171       0.00000000
Si      -0.61222707      -2.38959639      -2.80503535       0.00000000
Si       3.32270388      -0.42433821       2.15391599       0.00000000
Si      -3.77752068      -0.28759995       1.35380879       0.00000000
