10
Lattice="16.28999089631971 0.0 0.0 0.0 16.28999089631971 0.0 0.0 0.0 34.26581377546328" Properties=species:S:1:pos:R:3:initial_magmoms:R:1 pbc="T T T"
Si      -0.03976389      -1.17125100       2.02812612       0.00000000
Si      -1.49494959       1.83596708      -0.08210094       0.00000000
Si       2.13514659       0.82604961      -0.68233553       0.00000000
Si      -0.98531694      -1.74037473      -1.31762407       0.00000000
Si      -2.20424877      -0.63128637       2.71262040       0.00000000
Si       1.40579442       2.45147300      -2.25606244       0.00000000
Si      -0.91189791       2.80599552      -2.12701731       0.00000000
Si       2.90665728      -1.06056045      -1.95435178       0.00000000
Si       0.35502426      -3.58037910      -0.78715471       0.00000000
Si      -0.16677702      -3.49791912       1.51091764       0.00000000
