10
Lattice="16.28999089631971 0.0 0.0 0.0 16.28999089631971 0.0 0.0 0.0 34.26581377546328" Properties=species:S:1:pos:R:3:initial_magmoms:R:1 pbc="T T T"
Si       1.91684430      -1.31074227      -0.41170398       0.00000000
Si      -1.01250495      -0.03914487       2.15347054       0.00000000
Si      -1.51049025      -0.99427644      -1.56653108       0.00000000
Si       0.75295638       2.20957138      -0.56720233       0.00000000
Si       1.63232316       2.36543573       1.60806127       0.00000000
Si      -2.18334870      -2.07050787       1.82657449       0.00000000
Si      -2.34574371       1.97166750       2.00904005       0.00000000
Si       3.19438755       0.59875524       1.76386802       0.00000000
Si       2.11436055       1.78553061      -2.46141758       0.00000000
Si      -3.34288719       1.73459178      -0.10152966       0.00000000
