10
Lattice="16.28999089631971 0.0 0.0 0.0 16.28999089631971 0.0 0.0 0.0 34.26581377546328" Properties=species:S:1:pos:R:3:initial_magmoms:R:1 pbc="T T T"
Si      -1.41335298      -1.76566074      -0.55353027       0.00000000
Si      -1.42123734       1.75407788       0.72482516       0.00000000
Si       0.96125661      -0.63704488       2.08322558       0.00000000
Si       1.84971388       0.13332713      -1.49375045       0.00000000
Si       3.24880334       1.17977393       0.09676671       0.00000000
Si       2.59770344       1.02342251       2.36153267       0.00000000
Si      -0.87804729      -3.52981887       0.96845524       0.00000000
Si      -0.68953941      -2.69806776      -2.57288433       0.00000000
Si      -0.62486811      -0.07400384       3.75049821       0.00000000
Si      -0.96148467       2.13495437       3.02060170       0.00000000
