10
Lattice="16.28999089631971 0.0 0.0 0.0 16.28999089631971 0.0 0.0 0.0 34.26581377546328" Properties=species:S:1:pos:R:3:initial_magmoms:R:1 pbc="T T T"
Si      -1.03443129      -1.49587486       1.44033486       0.00000000
Si       1.54002402       1.18423413       1.36808192       0.00000000
Si       0.35030016      -0.72953136      -2.30437726       0.00000000
Si      -1.81182267       1.72325394       0.06205542       0.00000000
Si      -2.67472026      -2.38440477      -0.11725768       0.00000000
Si      -1.30528512      -2.53742162      -2.22405815       0.00000000
Si      -2.25419391       1.69782525      -2.31726122       0.00000000
Si       0.21336642       2.45977371       2.86080440       0.00000000
Si       2.47510260       2.87386551      -0.07212958       0.00000000
Si      -2.49279354      -0.25945083       2.85245725       0.00000000
