10
Lattice="16.28999089631971 0.0 0.0 0.0 16.28999089631971 0.0 0.0 0.0 34.26581377546328" Properties=species:S:1:pos:R:3:initial_magmoms:R:1 pbc="T T T"
Si       1.35703845      -1.35703845      -1.35678992       0.00000000
Si      -1.35757602       1.35728280      -1.35692698       0.00000000
Si      -1.35610992      -1.35858600       1.35750950       0.00000000
Si       1.35703845       1.35754344       1.35836615       0.00000000
Si      -2.71396287      -0.00057015      -2.71364837       0.00000000
Si       0.00102627       2.71393029      -2.71388823       0.00000000
Si      -0.00309510      -2.71463076       2.71416236       0.00000000
Si       2.71427806       0.00140094      -2.71471061       0.00000000
Si       2.71466093       2.71479366       0.00000000       0.00000000
Si      -0.00166158      -2.71598283      -2.71392250       0.00000000
