10
Lattice="16.28999089631971 0.0 0.0 0.0 16.28999089631971 0.0 0.0 0.0 34.26581377546328" Properties=species:S:1:pos:R:3:initial_magmoms:R:1 pbc="T T T"
Si      -1.35703845      -1.35754344      -1.35836615       0.00000000
Si       1.35744570      -1.35803214       1.35761230       0.00000000
Si       1.35762248       1.35725022      -1.35836615       0.00000000
Si      -1.36091547       1.36085031       1.36066196       0.00000000
Si      -2.71314837      -2.71612944      -0.00085665       0.00000000
Si      -2.71394658       2.71555929      -0.00119930       0.00000000
Si       0.00060273       2.71433754      -2.71539593       0.00000000
Si       0.00000000      -2.71458189      -2.71515607       0.00000000
Si      -2.71461447      -0.00026064      -2.71529313       0.00000000
Si       2.71505008       0.00000000      -2.71508754       0.00000000
