10
Lattice="16.28999089631971 0.0 0.0 0.0 16.28999089631971 0.0 0.0 0.0 34.26581377546328" Properties=species:S:1:pos:R:3:initial_magmoms:R:1 pbc="T T T"
Si      -0.10435374      -0.46639899       2.26452610       0.00000000
Si       1.44518364       1.41841917      -1.16829357       0.00000000
Si      -1.53536508      -1.41977124      -1.19813911       0.00000000
Si       2.16718902      -0.59842944       2.69195810       0.00000000
Si       2.64168414       0.00723276      -2.60567673       0.00000000
Si      -0.06217893      -2.68897890      -2.58731025       0.00000000
Si      -0.07152939       2.74566321      -2.55739617       0.00000000
Si      -1.77297102      -2.21477211       2.47813930       0.00000000
Si      -2.80564299       0.02733462      -2.58117666       0.00000000
Si      -2.02624794      -3.25572429       0.30575403       0.00000000
