10
Lattice="16.28999089631971 0.0 0.0 0.0 16.28999089631971 0.0 0.0 0.0 34.26581377546328" Properties=species:S:1:pos:R:3:initial_magmoms:R:1 pbc="T T T"
Si      -1.98301428      -0.22792968       1.30652194       0.00000000
Si       1.54013546      -1.82790090       0.07144426       0.00000000
Si       0.56910744       1.80486684      -1.46719443       0.00000000
Si      -0.13598892       0.66653793       2.58230744       0.00000000
Si       1.39641694      -1.19184156       2.49674565       0.00000000
Si      -1.75254336      -2.48572368       0.63532281       0.00000000
Si       2.11531581       0.40239558      -2.75439045       0.00000000
Si      -0.07493400      -3.59450253      -0.44470198       0.00000000
Si       1.06834285       2.75219550       2.15693139       0.00000000
Si      -3.59363916       1.25289648       0.25438954       0.00000000
