10
Lattice="16.28999089631971 0.0 0.0 0.0 16.28999089631971 0.0 0.0 0.0 34.26581377546328" Properties=species:S:1:pos:R:3:initial_magmoms:R:1 pbc="T T T"
Si      -1.42335504       1.29010284       1.37522494       0.00000000
Si       1.53240586      -1.85837949      -0.08556178       0.00000000
Si      -1.84702536      -0.89446761      -1.27578549       0.00000000
Si       1.20433177       2.08565757      -0.42537605       0.00000000
Si       0.13598892      -0.66653793      -2.58230744       0.00000000
Si       0.25542720       1.25731107       2.96947708       0.00000000
Si      -2.91164202      -1.86846300       0.79517292       0.00000000
Si       3.22827794       1.56840120       0.70138733       0.00000000
Si       2.47715907       0.62265267       2.70974207       0.00000000
Si      -3.20074065       0.05038497       2.16066636       0.00000000
