10
Lattice="16.28999089631971 0.0 0.0 0.0 16.28999089631971 0.0 0.0 0.0 34.26581377546328" Properties=species:S:1:pos:R:3:initial_magmoms:R:1 pbc="T T T"
Si      -1.28568825       1.36941885       1.38194104       0.00000000
Si       1.15127946      -1.33390665       1.54514920       0.00000000
Si       1.35593073       1.35265644      -1.35445984       0.00000000
Si      -1.36378251      -1.36044306      -1.35264375       0.00000000
Si      -2.22233067      -0.37963845       2.70227212       0.00000000
Si       2.27787957       0.19539855       2.90444053       0.00000000
Si       2.71911051       2.68947900       0.00452309       0.00000000
Si       2.71041165      -0.00221544      -2.71083857       0.00000000
Si      -0.00441459       2.71072116      -2.71128403       0.00000000
Si       2.69832447      -2.72456766       0.04745818       0.00000000
