10
Lattice="16.28999089631971 0.0 0.0 0.0 16.28999089631971 0.0 0.0 0.0 34.26581377546328" Properties=species:S:1:pos:R:3:initial_magmoms:R:1 pbc="T T T"
Si      -0.13737357      -1.03900878       2.07661227       0.00000000
Si      -2.24981353       0.55004814      -0.31065404       0.00000000
Si       0.85465485       2.22076683      -0.22615450       0.00000000
Si       0.33840846      -1.60852347      -1.79415901       0.00000000
Si      -2.10609500      -0.08601120      -2.73595543       0.00000000
Si      -0.70208271       0.91033407       3.33224945       0.00000000
Si       0.86804523       2.20851675      -2.74733169       0.00000000
Si      -3.33618290      -1.52135568      -0.34303525       0.00000000
Si       2.68679115      -2.06335656      -1.56252198       0.00000000
Si       1.95473484      -1.98825966       2.52158838       0.00000000
