10
Lattice="16.28999089631971 0.0 0.0 0.0 16.28999089631971 0.0 0.0 0.0 34.26581377546328" Properties=species:S:1:pos:R:3:initial_magmoms:R:1 pbc="T T T"
Si       1.41335298       1.76566074       0.55353027       0.00000000
Si       0.72381357      -0.93240702      -2.01935407       0.00000000
Si      -2.32095033       0.04059468      -0.55061767       0.00000000
Si       0.53530569      -1.76415813       1.52198550       0.00000000
Si      -2.36951082      -2.31612849      -0.59451220       0.00000000
Si      -1.63830159      -2.53078182       1.70242938       0.00000000
Si      -3.13916445       0.98125163       1.40071872       0.00000000
Si       2.42898561      -2.61303003       0.42616416       0.00000000
Si      -0.62257122      -2.85558813      -2.14497261       0.00000000
Si       2.37460959       1.12861585       2.63675584       0.00000000
