10
Lattice="16.28999089631971 0.0 0.0 0.0 16.28999089631971 0.0 0.0 0.0 34.26581377546328" Properties=species:S:1:pos:R:3:initial_magmoms:R:1 pbc="T T T"
Si       2.34838269      -0.45483309       0.23163703       0.00000000
Si      -0.33840846       1.60852347       1.79415901       0.00000000
Si      -1.07553096      -2.19636441       0.17050678       0.00000000
Si      -2.44450346       1.52251227      -0.94179642       0.00000000
Si      -0.55120473       2.10898485      -2.28542826       0.00000000
Si      -2.58822199       2.15857161       1.48350497       0.00000000
Si       2.44390725      -1.51102782       2.37068165       0.00000000
Si       3.39916914       1.70927712       0.44929360       0.00000000
Si      -0.47578203       0.56951469       3.87077128       0.00000000
Si      -3.67459136       0.08716779       1.45112376       0.00000000
