10
Lattice="16.28999089631971 0.0 0.0 0.0 16.28999089631971 0.0 0.0 0.0 34.26581377546328" Properties=species:S:1:pos:R:3:initial_magmoms:R:1 pbc="T T T"
Si       1.35540782      -1.35218403       1.36038783       0.00000000
Si      -1.36398681      -1.35254241      -1.35448040       0.00000000
Si      -1.36042554       1.36357074       1.35905147       0.00000000
Si       1.37728529       1.36518345      -1.37142143       0.00000000
Si      -0.15069553       2.50874145      -2.79018796       0.00000000
Si       2.70974213      -2.70658350       0.00051399       0.00000000
Si      -2.71747404      -2.70819621       0.00335805       0.00000000
Si      -0.00237508      -2.70940167       2.71683510       0.00000000
Si       2.71288610       0.00521280       2.71693789       0.00000000
Si      -2.71682244       0.00493587       2.71652670       0.00000000
