10
Lattice="16.28999089631971 0.0 0.0 0.0 16.28999089631971 0.0 0.0 0.0 34.26581377546328" Properties=species:S:1:pos:R:3:initial_magmoms:R:1 pbc="T T T"
Si       1.33626870       1.35550719       1.37471095       0.00000000
Si      -1.37728529      -1.36518345       1.37142143       0.00000000
Si      -1.52798082       1.14355800      -1.41876653       0.00000000
Si       1.45819935      -1.34001540      -1.40814070       0.00000000
Si      -0.38776716      -2.29224735      -2.62227442       0.00000000
Si      -2.19861732      -0.77286276      -2.88434160       0.00000000
Si       2.68338654       2.70288567      -0.02206377       0.00000000
Si       2.69118945      -0.00319284       2.73050716       0.00000000
Si       2.68972335      -2.73241944       0.01455270       0.00000000
Si      -2.74712463       2.69558775      -0.00692855       0.00000000
