10
Lattice="16.28999089631971 0.0 0.0 0.0 16.28999089631971 0.0 0.0 0.0 34.26581377546328" Properties=species:S:1:pos:R:3:initial_magmoms:R:1 pbc="T T T"
Si      -1.35392082       1.35881406      -1.35692698       0.00000000
Si      -1.35639690      -1.35863487       1.35747524       0.00000000
Si       1.35836811       1.35698958       1.35757803       0.00000000
Si       1.36042554      -1.36357074      -1.35905147       0.00000000
Si      -2.71377744       2.71440270      -0.00058252       0.00000000
Si       0.00070544       2.71451673       2.71501901       0.00000000
Si      -2.71301181      -2.71658556       0.00061678       0.00000000
Si      -0.00356127      -2.71611315      -2.71353187       0.00000000
Si      -2.71480371       0.00004887       2.71508754       0.00000000
Si       0.00062286      -2.71572219       2.71450502       0.00000000
