10
Lattice="16.28999089631971 0.0 0.0 0.0 16.28999089631971 0.0 0.0 0.0 34.26581377546328" Properties=species:S:1:pos:R:3:initial_magmoms:R:1 pbc="T T T"
Si       1.35664749       1.35795069      -1.35768083       0.00000000
Si       1.35716877      -1.36026387       1.35589901       0.00000000
Si      -1.35835124      -1.35715248      -1.35805776       0.00000000
Si      -1.35869093       1.36005210       1.36110742       0.00000000
Si       2.70176166       0.01078398       2.70299170       0.00000000
Si       2.71376739      -2.71461447      -0.00113077       0.00000000
Si       2.71433754       0.00021177      -2.71467635       0.00000000
Si       2.71401174       2.71502172       0.00058252       0.00000000
Si      -0.00092364      -2.71440270      -2.71477915       0.00000000
Si      -2.71597373      -2.71440270       0.00030839       0.00000000
