10
Lattice="16.28999089631971 0.0 0.0 0.0 16.28999089631971 0.0 0.0 0.0 34.26581377546328" Properties=species:S:1:pos:R:3:initial_magmoms:R:1 pbc="T T T"
Si       1.34459289       1.37104785       1.34709269       0.00000000
Si      -1.34468086      -1.35718506       1.36528785       0.00000000
Si       1.35659862      -1.35435060      -1.35702978       0.00000000
Si      -1.35716877       1.36026387      -1.35589901       0.00000000
Si      -0.02249649       2.70405855       2.66958251       0.00000000
Si       2.71446786       0.04082274       2.70131267       0.00000000
Si      -0.00045612      -2.71213839      -2.71381970       0.00000000
Si       2.71630863      -2.71052568       0.00161049       0.00000000
Si      -2.71569680      -2.71217097       0.00202168       0.00000000
Si       2.71503801       0.00322542      -2.71364837       0.00000000
