10
Lattice="16.28999089631971 0.0 0.0 0.0 16.28999089631971 0.0 0.0 0.0 34.26581377546328" Properties=species:S:1:pos:R:3:initial_magmoms:R:1 pbc="T T T"
Si      -1.35720461       1.35667178      -1.35699552       0.00000000
Si      -1.35681039      -1.35646911       1.35781790       0.00000000
Si       1.35684297      -1.35708813      -1.35730391       0.00000000
Si       1.35689184       1.36031748       1.35740671       0.00000000
Si       0.00182448       2.71409956       2.71029032       0.00000000
Si       2.71474479       0.00053019      -2.71501901       0.00000000
Si       2.71463076       2.71522357      -0.00006853       0.00000000
Si       2.71497285      -2.71490850       0.00041119       0.00000000
Si      -2.71480584       2.71507696       0.00037692       0.00000000
Si      -0.00084708       2.71453939      -2.71539593       0.00000000
