10
Lattice="16.28999089631971 0.0 0.0 0.0 16.28999089631971 0.0 0.0 0.0 34.26581377546328" Properties=species:S:1:pos:R:3:initial_magmoms:R:1 pbc="T T T"
Si       2.11421394       0.38126745       0.97057972       0.00000000
Si      -0.60297761       2.12074623      -0.84759964       0.00000000
Si      -1.97227770      -0.38349918       1.25837845       0.00000000
Si       0.56470914      -1.94934285      -1.25563718       0.00000000
Si       0.30962403       3.32719992       0.98939166       0.00000000
Si       0.70208271      -0.91033407      -3.33224945       0.00000000
Si      -2.48444396      -2.55280590       0.44226911       0.00000000
Si       3.71407113      -0.87289965      -0.27076861       0.00000000
Si       2.57588883       2.72671794       0.81819956       0.00000000
Si       1.99747980      -0.35748405       3.26830941       0.00000000
