10
Lattice="16.28999089631971 0.0 0.0 0.0 16.28999089631971 0.0 0.0 0.0 34.26581377546328" Properties=species:S:1:pos:R:3:initial_magmoms:R:1 pbc="T T T"
Si      -1.35335691       1.35656604      -1.36199833       0.00000000
Si       1.36060596      -1.35992178      -1.36141581       0.00000000
Si      -1.37122378      -1.34451144       1.37138717       0.00000000
Si       1.37782449       1.35149985       1.38358580       0.00000000
Si      -0.01873350      -2.73114882       2.66348319       0.00000000
Si      -2.71209671      -2.71489140      -0.00089091       0.00000000
Si      -2.71380903       2.71490248      -0.00483148       0.00000000
Si       2.71842633       2.71116448       0.00017133       0.00000000
Si      -2.71167444      -0.00185706      -2.71954210       0.00000000
Si       0.00345348       2.71303515      -2.71981622       0.00000000
