10
Lattice="16.28999089631971 0.0 0.0 0.0 16.28999089631971 0.0 0.0 0.0 34.26581377546328" Properties=species:S:1:pos:R:3:initial_magmoms:R:1 pbc="T T T"
Si       1.44697228      -0.90212391       1.67816917       0.00000000
Si      -1.51651170      -1.85083722      -0.08583591       0.00000000
Si       1.16807119       0.08721666      -2.09042140       0.00000000
Si      -1.00314797       2.06436395       0.80247154       0.00000000
Si       2.25883330      -2.64632679       0.32607367       0.00000000
Si      -3.54240126      -0.76703094      -0.27666234       0.00000000
Si       2.89526731      -1.56989988      -1.66977404       0.00000000
Si      -1.83722922      -2.44765395       2.16885589       0.00000000
Si       2.12017282       2.27334185      -2.22282458       0.00000000
Si       0.14361427      -1.93919418       3.29770949       0.00000000
