10
Lattice="16.28999089631971 0.0 0.0 0.0 16.28999089631971 0.0 0.0 0.0 34.69518985606464" Properties=species:S:1:pos:R:3:initial_magmoms:R:1 pbc="T T T"
Si       1.36283769       1.33832124      -1.37986317       0.00000000
Si      -1.34760654      -1.37443617      -1.38093872       0.00000000
Si       1.44643797      -1.34092764       1.39627400       0.00000000
Si      -1.45606536       1.27607715       1.57346243       0.00000000
Si       0.47242629       2.12869575       2.76843483       0.00000000
Si      -0.44264817      -2.17723995       2.73797244       0.00000000
Si      -2.54021373      -0.57083418       2.73512743       0.00000000
Si      -2.69799541       2.70443322      -0.00003470       0.00000000
Si       2.72958498       2.70718623      -0.00513489       0.00000000
Si       0.00724905       2.70148473      -2.74480739       0.00000000
