10
Lattice="16.28999089631971 0.0 0.0 0.0 16.28999089631971 0.0 0.0 0.0 34.69518985606464" Properties=species:S:1:pos:R:3:initial_magmoms:R:1 pbc="T T T"
Si       1.26700362      -1.41246680      -1.41972796       0.00000000
Si      -1.44643797       1.34092764      -1.39627400       0.00000000
Si      -1.88908614      -0.83631231       1.34169844       0.00000000
Si       1.62416187       0.35976465       1.95146674       0.00000000
Si      -0.23029173       1.63960479       2.70414461       0.00000000
Si       2.25191331      -3.09106727      -0.05020397       0.00000000
Si       2.63029743      -0.02697624      -2.77703924       0.00000000
Si       3.35466486      -1.39276568       1.24455185       0.00000000
Si      -0.97401168       3.46962339       1.37216083       0.00000000
Si      -0.08360028       2.67924888      -2.77613717       0.00000000
