10
Lattice="16.28999089631971 0.0 0.0 0.0 16.28999089631971 0.0 0.0 0.0 34.69518985606464" Properties=species:S:1:pos:R:3:initial_magmoms:R:1 pbc="T T T"
Si      -1.32515892      -1.76077470      -0.74556535       0.00000000
Si      -0.84918141       1.88333577      -1.12950254       0.00000000
Si       2.04685479      -0.44484732      -1.10521589       0.00000000
Si      -0.26345817       0.28818639       2.34123272       0.00000000
Si       0.93309120       1.99270683      -2.80576688       0.00000000
Si      -2.85707052       1.01688696      -2.01801215       0.00000000
Si      -3.09340584      -1.78136689       0.78463216       0.00000000
Si       2.98776519       1.69225407      -1.55507397       0.00000000
Si      -2.25657225      -1.11428650      -2.86460995       0.00000000
Si      -2.45509848      -0.77775791       2.82991474       0.00000000
