10
Lattice="16.28999089631971 0.0 0.0 0.0 16.28999089631971 0.0 0.0 0.0 34.69518985606464" Properties=species:S:1:pos:R:3:initial_magmoms:R:1 pbc="T T T"
Si      -1.33721352      -1.35022923       1.38217040       0.00000000
Si       1.37500632       1.36700793       1.38435620       0.00000000
Si       1.37764530      -1.42573338      -1.41790993       0.00000000
Si      -1.50887754       1.25941248      -1.45252881       0.00000000
Si       0.20513997       2.19861243      -2.85298501       0.00000000
Si      -2.68745904       2.71479366       0.03011544       0.00000000
Si      -2.70208746      -2.70972747      -0.01511670       0.00000000
Si       2.71107954       2.71331127       0.00725477       0.00000000
Si       2.72435589      -2.71050939       0.02696859       0.00000000
Si      -2.70146844       0.00798210       2.74322876       0.00000000
