10
Lattice="16.28999089631971 0.0 0.0 0.0 16.28999089631971 0.0 0.0 0.0 34.69518985606464" Properties=species:S:1:pos:R:3:initial_magmoms:R:1 pbc="T T T"
Si       0.84918141      -1.88333577       1.12950254       0.00000000
Si      -2.00788911      -0.86644881      -0.88850961       0.00000000
Si      -0.72233118       1.90674450       1.32709175       0.00000000
Si       1.78227261       0.10937106      -1.67626434       0.00000000
Si      -0.47597751      -3.64411047       0.38393719       0.00000000
Si       2.89603620      -2.32818309       0.02428665       0.00000000
Si      -1.40739084      -2.99762227      -1.73510741       0.00000000
Si       1.71193239       2.24684712      -2.57983167       0.00000000
Si       0.58572324      -1.59514938       3.47073526       0.00000000
Si       3.83694660      -0.19108170      -0.42557144       0.00000000
