10
Lattice="16.28999089631971 0.0 0.0 0.0 16.28999089631971 0.0 0.0 0.0 34.69518985606464" Properties=species:S:1:pos:R:3:initial_magmoms:R:1 pbc="T T T"
Si      -1.41727465       0.94959297       1.56638461       0.00000000
Si      -1.62246349      -1.30167363      -1.02739454       0.00000000
Si       1.18048254      -1.71834088       1.11607549       0.00000000
Si       1.41681786       1.07991297      -1.68656882       0.00000000
Si      -1.16303662       3.06598977       0.63773264       0.00000000
Si       2.01731613      -1.05126049      -2.53316662       0.00000000
Si       2.94872946      -1.69774869      -0.41412202       0.00000000
Si      -0.10887910      -2.12671261      -2.69914850       0.00000000
Si      -0.18837430       0.53985060       3.51417366       0.00000000
Si       1.81878990      -0.71473189       3.16135808       0.00000000
