10
Lattice="16.28999089631971 0.0 0.0 0.0 16.28999089631971 0.0 0.0 0.0 34.69518985606464" Properties=species:S:1:pos:R:3:initial_magmoms:R:1 pbc="T T T"
Si       1.35044100      -1.34687349       1.35578469       0.00000000
Si      -1.35664749      -1.35474156      -1.35460505       0.00000000
Si       1.35689184       1.36049193      -1.35408463       0.00000000
Si      -1.35063648       1.35909099       1.36317477       0.00000000
Si       0.00035838      -2.71181259      -2.71073670       0.00000000
Si      -2.71469592      -2.70930393       0.00187354       0.00000000
Si      -2.71453302       0.00275301      -2.71028566       0.00000000
Si       2.71057455       2.71461447       0.00464916       0.00000000
Si       2.71534752       0.00268785      -2.71063261       0.00000000
Si       0.00030951       2.71790505      -2.71049383       0.00000000
