10
Lattice="16.28999089631971 0.0 0.0 0.0 16.28999089631971 0.0 0.0 0.0 34.69518985606464" Properties=species:S:1:pos:R:3:initial_magmoms:R:1 pbc="T T T"
Si       2.09971584      -0.79144965      -0.75788215       0.00000000
Si      -0.16189002       1.96099020       1.36043385       0.00000000
Si      -1.00429479       0.04427622      -2.22049339       0.00000000
Si      -2.20488408      -0.95184099       1.47961189       0.00000000
Si      -0.51220647      -2.68001451       1.32084662       0.00000000
Si      -1.22836374       0.63631998       2.95291763       0.00000000
Si      -1.89079659       2.92146489      -0.09898543       0.00000000
Si      -3.05417952       1.12616028      -1.52971178       0.00000000
Si       3.21339798      -1.03022847       1.36706063       0.00000000
Si       1.49938047      -1.96942842       2.76751684       0.00000000
