10
Lattice="16.28999089631971 0.0 0.0 0.0 16.28999089631971 0.0 0.0 0.0 34.69518985606464" Properties=species:S:1:pos:R:3:initial_magmoms:R:1 pbc="T T T"
Si       1.34371323       1.35086454      -1.35638145       0.00000000
Si      -1.36124127       1.35147263       1.35588878       0.00000000
Si       1.35394335      -1.36000323       1.35665207       0.00000000
Si      -1.37942091      -1.36422234      -1.37635895       0.00000000
Si       2.46666438      -0.18671598      -2.71506666       0.00000000
Si      -0.00158013       2.71147606       2.71344292       0.00000000
Si       2.71301805      -0.00254124       2.71347762       0.00000000
Si       2.71285515       2.71476175      -0.00052043       0.00000000
Si      -2.71604799      -2.71371852      -0.00038165       0.00000000
Si      -2.71710684      -0.00294849       2.71326945       0.00000000
