10
Lattice="16.28999089631971 0.0 0.0 0.0 16.28999089631971 0.0 0.0 0.0 34.69518985606464" Properties=species:S:1:pos:R:3:initial_magmoms:R:1 pbc="T T T"
Si       1.57934808      -0.01270620      -1.74031170       0.00000000
Si      -1.87321968       1.11634948      -0.93271131       0.00000000
Si       0.64980810       1.34640012       1.87416581       0.00000000
Si      -0.85191813      -2.11914981       0.75874953       0.00000000
Si      -3.03219779      -1.50262218       1.02774149       0.00000000
Si       3.37014036      -1.22549670      -0.73498331       0.00000000
Si      -1.47033540       2.04147813       2.70289558       0.00000000
Si      -3.49780835      -0.63651546      -1.10899767       0.00000000
Si      -2.26707930       2.89329038       0.64432473       0.00000000
Si       0.74740149      -1.34444628      -3.63102712       0.00000000
