10
Lattice="16.28999089631971 0.0 0.0 0.0 16.28999089631971 0.0 0.0 0.0 34.69518985606464" Properties=species:S:1:pos:R:3:initial_magmoms:R:1 pbc="T T T"
Si      -1.15129575       1.70146444      -1.01913708       0.00000000
Si       0.19153782       0.82016729       2.17591005       0.00000000
Si       2.16883431       0.11122323      -0.86384132       0.00000000
Si      -0.45419778      -2.33870710      -0.32592680       0.00000000
Si       1.48022343      -1.08045121       2.68138455       0.00000000
Si       3.06514269      -1.02224704       0.93985852       0.00000000
Si      -1.02389166       0.79008944      -3.22658507       0.00000000
Si      -3.19815054       2.14631176       0.08607881       0.00000000
Si      -2.34885510      -2.59255417      -1.66110253       0.00000000
Si       2.43494775      -0.91644349      -2.92872670       0.00000000
