10
Lattice="16.28999089631971 0.0 0.0 0.0 16.28999089631971 0.0 0.0 0.0 34.69518985606464" Properties=species:S:1:pos:R:3:initial_magmoms:R:1 pbc="T T T"
Si      -0.19153782      -0.82016729      -2.17591005       0.00000000
Si       1.28868561      -1.90061850       0.50547450       0.00000000
Si      -1.92028149       0.39249126       1.35692963       0.00000000
Si       1.57977162       1.79083301       0.14714238       0.00000000
Si       2.59468749       0.80566267       2.13077158       0.00000000
Si      -1.34283357       0.88129715      -3.19504712       0.00000000
Si       2.87360487      -1.84241433      -1.23605152       0.00000000
Si       1.97729649      -0.70894406      -3.03975137       0.00000000
Si      -1.12840830       1.87558987       3.07458536       0.00000000
Si      -2.73315249      -1.77215556       1.97387984       0.00000000
