10
Lattice="16.28999089631971 0.0 0.0 0.0 16.28999089631971 0.0 0.0 0.0 34.69518985606464" Properties=species:S:1:pos:R:3:initial_magmoms:R:1 pbc="T T T"
Si      -1.87051554      -0.93444490       1.23360000       0.00000000
Si       0.84997962       1.87234002       1.32418919       0.00000000
Si      -0.28932669       0.92668923      -2.25223951       0.00000000
Si       1.66918743      -1.98416680       0.09863817       0.00000000
Si      -0.35797275      -1.49854316      -2.56689036       0.00000000
Si      -0.52422849      -2.12635718       2.77347400       0.00000000
Si       2.19669021       0.58756401       2.76906771       0.00000000
Si       3.36960279      -0.89687853       1.35693800       0.00000000
Si       2.60576469       2.88127746       0.06300762       0.00000000
Si      -2.84944680      -2.66425298      -0.19942806       0.00000000
