10
Lattice="16.28999089631971 0.0 0.0 0.0 16.28999089631971 0.0 0.0 0.0 34.69518985606464" Properties=species:S:1:pos:R:3:initial_magmoms:R:1 pbc="T T T"
Si       1.08440901       1.45011951       1.53616508       0.00000000
Si      -0.27543132       1.20267441      -2.11800374       0.00000000
Si      -1.82299761      -1.65524319      -0.02459890       0.00000000
Si       2.68633503      -0.74860695      -0.72315225       0.00000000
Si       1.52453223      -1.92881745       2.00191357       0.00000000
Si       0.66881853       3.38273253       0.37328576       0.00000000
Si      -0.09249462      -3.40777352      -0.73151379       0.00000000
Si       1.60218666      -2.32370334      -2.07522455       0.00000000
Si       0.54108864      -0.68010750      -3.39683446       0.00000000
Si      -3.67745121      -0.37540305       0.72807897       0.00000000
