10
Lattice="16.28999089631971 0.0 0.0 0.0 16.28999089631971 0.0 0.0 0.0 34.69518985606464" Properties=species:S:1:pos:R:3:initial_magmoms:R:1 pbc="T T T"
Si      -1.23729066       1.31501025       1.44873663       0.00000000
Si      -1.88571411      -0.98451873      -1.09635265       0.00000000
Si       0.67960251       1.84583619      -1.48677441       0.00000000
Si       1.49797953      -1.41271767       1.39730792       0.00000000
Si       0.15723108       0.45149364      -3.52261990       0.00000000
Si      -2.74747955       2.44283211      -0.01069653       0.00000000
Si       2.69118945       2.55642228      -0.04010419       0.00000000
Si      -2.56877824      -0.05038497       2.79567057       0.00000000
Si       0.14258637       2.66401773       2.79907070       0.00000000
Si       0.14270040      -2.76388032       2.79331130       0.00000000
