10
Lattice="16.28999089631971 0.0 0.0 0.0 16.28999089631971 0.0 0.0 0.0 34.69518985606464" Properties=species:S:1:pos:R:3:initial_magmoms:R:1 pbc="T T T"
Si      -1.34429967      -1.34294760       1.38634423       0.00000000
Si       1.37143881       1.37145510       1.38450539       0.00000000
Si      -1.61593542       1.15505874      -1.37810759       0.00000000
Si       1.23272946      -1.49271786      -1.47979231       0.00000000
Si      -2.69231346      -2.71031391       0.03224226       0.00000000
Si       2.70622512      -2.71179630       0.00938158       0.00000000
Si       2.71347417       2.72710890       0.01927319       0.00000000
Si       0.00881289      -2.70319518       2.74563314       0.00000000
Si      -2.72455137       2.72536587       0.01352419       0.00000000
Si      -2.70658350       0.01283652       2.74639643       0.00000000
