10
Lattice="16.28999089631971 0.0 0.0 0.0 16.28999089631971 0.0 0.0 0.0 34.69518985606464" Properties=species:S:1:pos:R:3:initial_magmoms:R:1 pbc="T T T"
Si       1.35610992       1.35627282      -1.35710311       0.00000000
Si      -1.35845568       1.35780408       1.35654799       0.00000000
Si       1.35808101      -1.35775521       1.35786640       0.00000000
Si      -1.35900954      -1.35957969      -1.35758884       0.00000000
Si      -2.71534752      -0.00268785       2.71063261       0.00000000
Si      -0.00477297       2.71192662       2.71528177       0.00000000
Si      -2.71212210       0.00066789      -2.71687775       0.00000000
Si       2.71450044      -2.71467963      -0.00048573       0.00000000
Si       2.71381626      -0.00011403       2.71552464       0.00000000
Si      -2.71498914      -2.71450044      -0.00010409       0.00000000
