10
Lattice="16.28999089631971 0.0 0.0 0.0 16.28999089631971 0.0 0.0 0.0 34.69518985606464" Properties=species:S:1:pos:R:3:initial_magmoms:R:1 pbc="T T T"
Si      -1.36194174      -1.32491457      -1.36990564       0.00000000
Si      -1.46580678       1.20471066       1.40519067       0.00000000
Si       1.36541151       1.38536676      -1.35866439       0.00000000
Si       0.83624715      -1.74117294       1.40040273       0.00000000
Si      -2.70474273      -2.68164351       0.01585571       0.00000000
Si       2.69736336      -2.69278587       0.02272536       0.00000000
Si      -0.18029772       2.22355242       3.09633925       0.00000000
Si      -0.81616158      -3.51207513       1.27532650       0.00000000
Si       0.00079821      -2.69358408      -2.72097179       0.00000000
Si      -2.70212004       2.72463282       0.00569001       0.00000000
