10
Lattice="16.28999089631971 0.0 0.0 0.0 16.28999089631971 0.0 0.0 0.0 34.69518985606464" Properties=species:S:1:pos:R:3:initial_magmoms:R:1 pbc="T T T"
Si      -2.11369266       1.00359432      -0.22791283       0.00000000
Si       1.18555362       0.56461140       1.97460844       0.00000000
Si       1.38186441       0.97342524      -1.75672253       0.00000000
Si      -0.74818341      -2.34383778       0.04427109       0.00000000
Si      -2.94340752       0.16552269      -2.36149472       0.00000000
Si       3.30765192       1.49092596       1.26831807       0.00000000
Si      -3.52953801       0.20401596       1.52478506       0.00000000
Si       1.53909549      -1.48419819       3.20698228       0.00000000
Si       0.44606907       2.63925693       2.77690046       0.00000000
Si       2.58251886      -0.76450599      -2.76392445       0.00000000
