10
Lattice="16.28999089631971 0.0 0.0 0.0 16.28999089631971 0.0 0.0 0.0 34.69518985606464" Properties=species:S:1:pos:R:3:initial_magmoms:R:1 pbc="T T T"
Si       0.97740000       1.72592550       1.39811285       0.00000000
Si       1.49392332      -1.19744532      -1.59223254       0.00000000
Si      -1.22329755       1.51037622      -1.60121860       0.00000000
Si      -1.39593897      -1.69639173       1.46698284       0.00000000
Si      -1.13538042       2.48751558       2.44916952       0.00000000
Si       2.55912642       2.79586899      -0.22003702       0.00000000
Si      -2.68144803      -2.71523349      -0.22416575       0.00000000
Si      -2.95161768       2.54922210      -0.26229578       0.00000000
Si       0.14977026      -2.53457739      -2.98802081       0.00000000
Si      -2.56873752       0.18081900      -2.99298223       0.00000000
