10
Lattice="16.28999089631971 0.0 0.0 0.0 16.28999089631971 0.0 0.0 0.0 34.69518985606464" Properties=species:S:1:pos:R:3:initial_magmoms:R:1 pbc="T T T"
Si       0.38470464       0.60706314      -2.25015780       0.00000000
Si      -1.78737138       1.42418583       0.75007573       0.00000000
Si       2.05306128       0.61030485       1.11250188       0.00000000
Si      -0.27455166      -2.40538140       0.07799483       0.00000000
Si       1.10177415       2.84644944      -1.85272417       0.00000000
Si       1.95186780      -1.12208778      -3.04061875       0.00000000
Si       1.73196909       2.74064589       2.01586105       0.00000000
Si      -2.71769328       0.42349113       2.65994291       0.00000000
Si       1.83914100      -3.40897572       0.30590766       0.00000000
Si      -3.68202870       1.17033876      -0.58510001       0.00000000
