10
Lattice="16.28999089631971 0.0 0.0 0.0 16.28999089631971 0.0 0.0 0.0 34.69518985606464" Properties=species:S:1:pos:R:3:initial_magmoms:R:1 pbc="T T T"
Si       1.00036890      -1.46010528      -1.56034765       0.00000000
Si      -2.33839692      -0.28567773      -0.19509116       0.00000000
Si      -0.17213643       2.12436261      -1.02545160       0.00000000
Si       1.20945105      -0.14120172       2.05128486       0.00000000
Si      -2.19352995       1.28205558      -2.01162823       0.00000000
Si       0.55524465      -2.26553175       2.94211905       0.00000000
Si      -2.69685837      -2.61750978      -0.51657697       0.00000000
Si       3.33527976      -1.07743689      -1.58897119       0.00000000
Si      -3.38845032       0.37507725       1.94692167       0.00000000
Si      -0.15892524       3.93051214       0.46443007       0.00000000
