10
Lattice="16.28999089631971 0.0 0.0 0.0 16.28999089631971 0.0 0.0 0.0 34.69518985606464" Properties=species:S:1:pos:R:3:initial_magmoms:R:1 pbc="T T T"
Si      -1.34682462      -1.34438112      -1.36255026       0.00000000
Si       1.36193607       1.37081979      -1.35346011       0.00000000
Si       1.23766533      -1.52972874       1.32036088       0.00000000
Si      -1.56784734       1.15103511       1.37628956       0.00000000
Si       0.11821653       2.75916762       1.95920377       0.00000000
Si      -0.37090701      -2.61209335       2.71496951       0.00000000
Si       0.00573408      -2.70691582      -2.72010440       0.00000000
Si      -2.70910845       0.01153332      -2.72176977       0.00000000
Si      -2.73253347      -2.70342650      -0.01453729       0.00000000
Si       2.72382714       0.01190799      -2.71930642       0.00000000
