10
Lattice="16.28999089631971 0.0 0.0 0.0 16.28999089631971 0.0 0.0 0.0 34.69518985606464" Properties=species:S:1:pos:R:3:initial_magmoms:R:1 pbc="T T T"
Si      -1.35573525      -1.35764118      -1.35765823       0.00000000
Si      -1.35136953       1.36083402       1.36213391       0.00000000
Si       1.35944937       1.35874890      -1.35786640       0.00000000
Si       1.36244673      -1.36060596       1.36556874       0.00000000
Si       2.71564074       2.71248048      -0.00291440       0.00000000
Si      -2.71381626       0.00011403      -2.71552464       0.00000000
Si       0.00068418      -2.71456560      -2.71601037       0.00000000
Si      -2.71858923       2.71204065      -0.00024287       0.00000000
Si       2.71568961      -2.71536381       0.00010409       0.00000000
Si       0.00138465       2.71577106      -2.71566342       0.00000000
