10
Lattice="16.28999089631971 0.0 0.0 0.0 16.28999089631971 0.0 0.0 0.0 34.69518985606464" Properties=species:S:1:pos:R:3:initial_magmoms:R:1 pbc="T T T"
Si      -1.34415306      -1.33713207      -1.39578827       0.00000000
Si       1.36989126       1.37318184      -1.39644748       0.00000000
Si      -1.49392332       1.19744532       1.59223254       0.00000000
Si       1.21024926      -1.79343126       1.46358271       0.00000000
Si       2.60343522      -0.29258469       2.59148926       0.00000000
Si      -2.71722087       2.70782154      -0.00898606       0.00000000
Si      -2.70956457      -2.72249883      -0.03712387       0.00000000
Si       2.70909216       2.73163752      -0.01429443       0.00000000
Si       2.74032009      -2.70236439      -0.03691570       0.00000000
Si       0.00721647      -2.69796609      -2.75792218       0.00000000
