10
Lattice="16.28999089631971 0.0 0.0 0.0 16.28999089631971 0.0 0.0 0.0 34.69518985606464" Properties=species:S:1:pos:R:3:initial_magmoms:R:1 pbc="T T T"
Si       0.58106430       0.75512295      -2.14926413       0.00000000
Si       0.30473703      -2.33509005       0.21091218       0.00000000
Si      -2.33491086      -0.38266839       0.02862355       0.00000000
Si       0.90098361       1.06401393       1.92929650       0.00000000
Si      -2.03141187      -2.73248460       0.33380261       0.00000000
Si       0.26870355       3.10827861      -1.86084285       0.00000000
Si      -1.15960365      -0.00834048      -3.57096972       0.00000000
Si       3.12321654       0.20988036       2.08927611       0.00000000
Si      -3.08827449      -0.26153595      -2.20609488       0.00000000
Si      -3.33527976       1.07743689       1.58897119       0.00000000
