10
Lattice="16.28999089631971 0.0 0.0 0.0 16.28999089631971 0.0 0.0 0.0 34.69518985606464" Properties=species:S:1:pos:R:3:initial_magmoms:R:1 pbc="T T T"
Si       2.08575531      -0.93287943       0.36506299       0.00000000
Si       0.19616418       2.32657038       0.11151040       0.00000000
Si      -1.63431054      -0.88133787       1.52603408       0.00000000
Si       1.63188333      -0.50666787      -1.94362562       0.00000000
Si      -1.48807521       2.70928764      -1.54476950       0.00000000
Si       1.71782937      -3.21085674       0.12816410       0.00000000
Si       0.23869737      -2.00751444      -3.07153218       0.00000000
Si      -0.19179846       2.99081142       2.36204985       0.00000000
Si      -0.36517293      -2.19480057       3.11583796       0.00000000
Si      -2.46547521       0.98336214      -2.94288234       0.00000000
