10
Lattice="16.28999089631971 0.0 0.0 0.0 16.28999089631971 0.0 0.0 0.0 34.69518985606464" Properties=species:S:1:pos:R:3:initial_magmoms:R:1 pbc="T T T"
Si      -1.28160435       0.26314866       2.01731825       0.00000000
Si      -1.70939196      -0.05825304      -1.75998388       0.00000000
Si       1.51607772       1.93976433       0.00770234       0.00000000
Si       1.74066795      -1.84489137      -0.13309082       0.00000000
Si      -0.53245657      -2.82597291       1.95823231       0.00000000
Si       2.89160532       1.03366566       1.84627086       0.00000000
Si       3.12526908      -0.90310131      -1.84970569       0.00000000
Si       0.23980509       0.31183947       3.91570132       0.00000000
Si       1.56770073       2.90763468      -2.21848107       0.00000000
Si       2.28968982      -0.77004459       3.22491970       0.00000000
