10
Lattice="16.28999089631971 0.0 0.0 0.0 16.28999089631971 0.0 0.0 0.0 34.69518985606464" Properties=species:S:1:pos:R:3:initial_magmoms:R:1 pbc="T T T"
Si       0.97684777       1.32756984      -1.65343489       0.00000000
Si       1.82614321      -0.75043143       1.35588878       0.00000000
Si      -1.01205681       2.12452551       1.09220519       0.00000000
Si      -1.09173845      -2.04978699      -1.68837297       0.00000000
Si       0.09173876      -1.88160903       2.67320138       0.00000000
Si       2.14023070       3.12287445      -0.22270855       0.00000000
Si      -0.54456167       1.27887903      -3.55181796       0.00000000
Si      -3.24616273       1.61292177      -1.22435924       0.00000000
Si       3.02673250       0.24568578      -2.34421651       0.00000000
Si      -2.53207429       1.10156238       2.67588332       0.00000000
