10
Lattice="10.86 0.0 0.0 0.0 10.86 0.0 0.0 0.0 10.86" Properties=species:S:1:pos:R:3:initial_magmoms:R:1 pbc="T T T"
Si       1.55081886      -1.22375910       0.90088044       0.00000000
Si      -0.95280210      -1.39688922      -1.64193426       0.00000000
Si       2.06935128       1.60991898      -2.05054176       0.00000000
Si       0.23788830      -2.82142800       2.40075504       0.00000000
Si      -2.47711170      -2.82142800      -0.31424496       0.00000000
Si       2.95288830      -0.10642800       2.40075504       0.00000000
Si      -2.79109602       2.63715552      -0.21751494       0.00000000
Si      -1.31637318      -1.35759774       3.38416062       0.00000000
Si      -2.47711170      -0.10642800      -3.02924496       0.00000000
Si       2.95288830       2.60857200      -0.31424496       0.00000000
