10
Lattice="16.28999089631971 0.0 0.0 0.0 16.28999089631971 0.0 0.0 0.0 34.385447050020396" Properties=species:S:1:pos:R:3:initial_magmoms:R:1 pbc="T T T"
Si       1.33667595       1.35797537       1.38570334       0.00000000
Si      -0.74854179       1.91804023      -1.16252447       0.00000000
Si      -1.39075386      -1.34361592       1.37531893       0.00000000
Si       1.32084207      -1.36682917      -1.64915791       0.00000000
Si       2.67452478      -2.70630700      -0.01726494       0.00000000
Si       2.68353315       0.01288920       2.74303524       0.00000000
Si       2.70656721       2.72037160      -0.00616531       0.00000000
Si      -0.03007134      -2.70417301       2.73846197       0.00000000
Si      -2.72509985       2.72467216       0.01339314       0.00000000
Si      -0.03256371       2.72633374       2.73897775       0.00000000
