10
Lattice="16.28999089631971 0.0 0.0 0.0 16.28999089631971 0.0 0.0 0.0 34.385447050020396" Properties=species:S:1:pos:R:3:initial_magmoms:R:1 pbc="T T T"
Si       1.34697123       1.36148666       1.36878913       0.00000000
Si      -1.37165058      -1.35124047       1.36517866       0.00000000
Si      -1.10903949       1.41886656      -1.54509717       0.00000000
Si       1.44586782      -1.38369015      -1.28925555       0.00000000
Si      -2.70339066       2.71338236      -0.02005360       0.00000000
Si      -2.16081963      -0.08081595      -3.16199261       0.00000000
Si       2.69995347       2.72121785      -0.00077711       0.00000000
Si       2.70449838       0.00437260       2.72749645       0.00000000
Si      -0.00851967      -2.71163466       2.72722136       0.00000000
Si      -0.01050705       2.71835081       2.72701505       0.00000000
