10
Lattice="16.28999089631971 0.0 0.0 0.0 16.28999089631971 0.0 0.0 0.0 34.385447050020396" Properties=species:S:1:pos:R:3:initial_magmoms:R:1 pbc="T T T"
Si       1.58462604      -1.56908538      -0.68107293       0.00000000
Si      -1.30222260       1.41545439      -1.31967981       0.00000000
Si       1.20106170       1.32049998       1.52578629       0.00000000
Si      -1.83728394      -1.04290209       1.07454582       0.00000000
Si      -1.72721241       2.95200864       0.51959878       0.00000000
Si       0.29069505      -3.51179820      -0.36716801       0.00000000
Si       3.15926631      -1.21630914       1.07038518       0.00000000
Si      -0.52360947       2.45926872       2.54583115       0.00000000
Si      -3.32110746       0.06173910      -1.65480056       0.00000000
Si       0.26178030       2.16546228      -3.03290128       0.00000000
