10
Lattice="16.28999089631971 0.0 0.0 0.0 16.28999089631971 0.0 0.0 0.0 34.385447050020396" Properties=species:S:1:pos:R:3:initial_magmoms:R:1 pbc="T T T"
Si       1.72467117      -1.13876874      -1.02004486       0.00000000
Si       1.30937391       1.81757304       0.77676768       0.00000000
Si      -1.33138170      -1.37564163       1.43002277       0.00000000
Si      -1.20360294       0.49273992      -2.02623237       0.00000000
Si       1.68032979       2.47466277      -1.55260696       0.00000000
Si      -2.82802545      -2.06550684      -0.38556423       0.00000000
Si       0.52360947      -2.45926872      -2.54583115       0.00000000
Si       0.18129141       2.08233441       2.91011078       0.00000000
Si       2.87528274       0.53642970      -2.18309887       0.00000000
Si      -0.45752094       2.65518855      -2.54765358       0.00000000
