10
Lattice="16.28999089631971 0.0 0.0 0.0 16.28999089631971 0.0 0.0 0.0 34.385447050020396" Properties=species:S:1:pos:R:3:initial_magmoms:R:1 pbc="T T T"
Si      -0.49774095      -1.48700007       1.77504654       0.00000000
Si      -1.25892378       1.88841825      -0.70521153       0.00000000
Si      -0.49348926      -1.51829316      -1.79313329       0.00000000
Si       2.20823982       0.90197730       0.32191674       0.00000000
Si       3.24197064      -0.78687216       1.57884307       0.00000000
Si      -1.24121655      -0.23811093      -3.60651963       0.00000000
Si      -0.96915726       3.40153119       1.44790321       0.00000000
Si       3.26889801       1.00590750      -1.78209556       0.00000000
Si      -2.79753057      -2.17127781       1.53462336       0.00000000
Si       0.88585020      -3.47571259       1.49655865       0.00000000
