10
Lattice="16.28999089631971 0.0 0.0 0.0 16.28999089631971 0.0 0.0 0.0 34.385447050020396" Properties=species:S:1:pos:R:3:initial_magmoms:R:1 pbc="T T T"
Si       0.22542102      -0.03595203      -2.30915599       0.00000000
Si      -0.13141143      -2.32090960       0.66804084       0.00000000
Si      -2.30476851       0.89365311      -0.24860692       0.00000000
Si       2.35018762       0.77861313       1.33253997       0.00000000
Si       1.27565850      -0.11386710       3.28391518       0.00000000
Si       0.17124211      -2.22211076       2.98479601       0.00000000
Si      -1.39127418      -1.56364941      -3.15696404       0.00000000
Si       2.28703129      -1.12758891      -2.83989566       0.00000000
Si       0.61833256       2.10360915      -3.20627280       0.00000000
Si       2.58629488       2.91571452       0.11691059       0.00000000
