10
Lattice="16.28999089631971 0.0 0.0 0.0 16.28999089631971 0.0 0.0 0.0 34.385447050020396" Properties=species:S:1:pos:R:3:initial_magmoms:R:1 pbc="T T T"
Si       0.74608200       2.16244863      -0.52142121       0.00000000
Si      -2.23070373      -0.60440787       0.40722708       0.00000000
Si       1.20360294      -0.49273992       2.02623237       0.00000000
Si       0.42498981      -1.53655425      -1.83927859       0.00000000
Si      -1.62442251      -2.55824676       1.64066814       0.00000000
Si       1.72721241      -2.95200864      -0.51959878       0.00000000
Si       2.92827411      -1.63150866       1.00618751       0.00000000
Si       2.88393273       1.98192285       0.47362541       0.00000000
Si      -3.04866535      -1.08424611      -1.76538422       0.00000000
Si      -0.18366975       3.76279452       0.97273046       0.00000000
