10
Lattice="16.28999089631971 0.0 0.0 0.0 16.28999089631971 0.0 0.0 0.0 34.385447050020396" Properties=species:S:1:pos:R:3:initial_magmoms:R:1 pbc="T T T"
Si       0.92975175      -1.60034589      -1.49415167       0.00000000
Si       1.81229508       1.56616947       0.02482631       0.00000000
Si      -2.01101679       0.63987120      -1.14101293       0.00000000
Si      -0.94058460      -0.37813977       2.18454306       0.00000000
Si      -2.42960463       2.59444314       0.19867922       0.00000000
Si       3.06760248      -1.78087167      -0.49910504       0.00000000
Si       1.57410270       2.35035378      -2.27666172       0.00000000
Si      -2.57711058       1.40497992       2.19025104       0.00000000
Si      -3.65283539      -0.88835886      -0.34141329       0.00000000
Si       0.18366975      -3.76279452      -0.97273046       0.00000000
