10
Lattice="16.28999089631971 0.0 0.0 0.0 16.28999089631971 0.0 0.0 0.0 34.385447050020396" Properties=species:S:1:pos:R:3:initial_magmoms:R:1 pbc="T T T"
Si       1.35721764      -1.35666378       1.35554385       0.00000000
Si      -1.35754344      -1.35677781      -1.35719435       0.00000000
Si       1.35738054       1.35829278      -1.35740067       0.00000000
Si      -1.35593073       1.36068741       1.35674734       0.00000000
Si       0.00461007      -2.71114470       2.68608947       0.00000000
Si      -2.70954339      -0.00444717       2.69798684       0.00000000
Si      -2.71476597      -2.71308321      -0.00044701       0.00000000
Si       2.71505430      -2.71342530       0.00085964       0.00000000
Si       2.71541268       2.71401174       0.00034385       0.00000000
Si      -0.00011403      -2.71544526      -2.71411362       0.00000000
