10
Lattice="16.28999089631971 0.0 0.0 0.0 16.28999089631971 0.0 0.0 0.0 34.385447050020396" Properties=species:S:1:pos:R:3:initial_magmoms:R:1 pbc="T T T"
Si       0.74854179      -1.91804023       1.16252447       0.00000000
Si      -0.47259082      -0.53180334      -2.31413298       0.00000000
Si      -1.97655806       0.80663193       1.17591761       0.00000000
Si       1.80198351       1.93336236      -0.14094603       0.00000000
Si       2.08521774      -0.56006486       2.54822782       0.00000000
Si      -0.64857658       2.17463355       2.55204461       0.00000000
Si      -1.19941804       1.61924229      -2.98695340       0.00000000
Si       3.45510900       0.80233137       1.15635916       0.00000000
Si       0.71588034       3.52243557       1.19693057       0.00000000
Si       2.06938386      -3.28486940      -0.48663343       0.00000000
