10
Lattice="16.28999089631971 0.0 0.0 0.0 16.28999089631971 0.0 0.0 0.0 34.385447050020396" Properties=species:S:1:pos:R:3:initial_magmoms:R:1 pbc="T T T"
Si       1.44339174       1.77045537      -0.56099888       0.00000000
Si       0.30349899      -1.46785932      -1.84904406       0.00000000
Si      -2.00389806       1.33690401      -0.11835477       0.00000000
Si       0.23819238      -0.78418431       2.30148803       0.00000000
Si       3.27606561       0.78089373       0.50904244       0.00000000
Si      -2.17517112       1.62575829       2.22797190       0.00000000
Si      -0.20755089       1.23958755       3.34336766       0.00000000
Si      -1.57410270      -2.35035378       2.27666172       0.00000000
Si       3.37012407      -1.48247145      -0.15734789       0.00000000
Si       0.62747451       3.71303576       0.41716448       0.00000000
