10
Lattice="16.28999089631971 0.0 0.0 0.0 16.28999089631971 0.0 0.0 0.0 34.385447050020396" Properties=species:S:1:pos:R:3:initial_magmoms:R:1 pbc="T T T"
Si      -1.23588972      -1.95931233       0.28436781       0.00000000
Si      -0.30349899       1.46785932       1.84904406       0.00000000
Si       2.13881184      -1.07975007      -0.16223063       0.00000000
Si       0.74863953       1.39709556      -1.95928387       0.00000000
Si       2.76503202       0.20450466      -2.03328139       0.00000000
Si       3.06662508      -0.01461213       1.69169617       0.00000000
Si       1.13989275       3.23831469       1.28804518       0.00000000
Si      -0.94784994      -2.48284035       2.63155412       0.00000000
Si      -0.47522817      -3.45375693      -1.57248176       0.00000000
Si       1.23497748       3.56475277      -1.07079781       0.00000000
