10
Lattice="16.28999089631971 0.0 0.0 0.0 16.28999089631971 0.0 0.0 0.0 34.385447050020396" Properties=species:S:1:pos:R:3:initial_magmoms:R:1 pbc="T T T"
Si      -1.96762023       0.38617074      -1.11539575       0.00000000
Si       0.44574327      -2.02377186      -1.04187963       0.00000000
Si       0.92058048       2.08315447      -0.59002022       0.00000000
Si      -0.36931059       0.12235419       2.32218808       0.00000000
Si      -2.41683327       2.18373056       0.33360779       0.00000000
Si       2.99749032       1.75800444       0.37758681       0.00000000
Si       2.57385258      -2.40632622      -0.04157203       0.00000000
Si       0.20755089      -1.23958755      -3.34336766       0.00000000
Si      -2.57482998       1.02399333       2.40963032       0.00000000
Si       3.65184333      -0.37455597      -0.39832124       0.00000000
