10
Lattice="16.28999089631971 0.0 0.0 0.0 16.28999089631971 0.0 0.0 0.0 34.385447050020396" Properties=species:S:1:pos:R:3:initial_magmoms:R:1 pbc="T T T"
Si      -1.35350352       1.35886293      -1.36396829       0.00000000
Si       1.36122498      -1.35807938      -1.36238656       0.00000000
Si       1.37282346       1.35062019       1.37387130       0.00000000
Si      -1.35923760      -1.34990180       1.39604993       0.00000000
Si      -2.71077003       2.71151937      -0.00354170       0.00000000
Si      -2.70796815      -2.71521110       0.00189120       0.00000000
Si      -2.71150308      -0.00014661      -2.71982161       0.00000000
Si       2.71987614      -2.71393748      -0.00323223       0.00000000
Si       2.72209158       2.71251306      -0.00299154       0.00000000
Si       0.00330687       2.71497285      -2.72061248       0.00000000
