10
Lattice="16.28999089631971 0.0 0.0 0.0 16.28999089631971 0.0 0.0 0.0 34.385447050020396" Properties=species:S:1:pos:R:3:initial_magmoms:R:1 pbc="T T T"
Si       1.33042059      -1.29971557      -1.50543010       0.00000000
Si       1.69766235       1.14917805       1.33645992       0.00000000
Si      -0.86084505      -1.90591697       1.28735747       0.00000000
Si      -1.37218815       1.40753745      -1.48689633       0.00000000
Si       3.49068636      -0.72247779       1.16195368       0.00000000
Si       2.68384266      -2.62065652      -0.10535707       0.00000000
Si      -2.71529865      -2.70859436      -0.04497619       0.00000000
Si       2.68301187       2.74875831      -0.10064626       0.00000000
Si      -2.52894105       2.90769984      -0.05646094       0.00000000
Si      -0.02513547      -2.65702022      -2.86399987       0.00000000
