10
Lattice="16.28999089631971 0.0 0.0 0.0 16.28999089631971 0.0 0.0 0.0 34.385447050020396" Properties=species:S:1:pos:R:3:initial_magmoms:R:1 pbc="T T T"
Si       0.81060669      -2.11707513       0.50182149       0.00000000
Si      -2.24147142      -0.40216589       0.64978216       0.00000000
Si       0.81076959       1.40854417       1.75713171       0.00000000
Si       0.36259911       0.00071024      -2.44098986       0.00000000
Si       3.08710161       1.46766058       1.03242362       0.00000000
Si      -3.37704732       1.48510717      -0.31476456       0.00000000
Si       2.93917212      -2.25451386      -0.38865893       0.00000000
Si      -2.72780937      -2.56982310      -0.23870391       0.00000000
Si       2.14263999      -1.74100419      -2.59599955       0.00000000
Si      -0.71141688      -3.76241400      -0.31270143       0.00000000
