10
Lattice="16.28999089631971 0.0 0.0 0.0 16.28999089631971 0.0 0.0 0.0 34.385447050020396" Properties=species:S:1:pos:R:3:initial_magmoms:R:1 pbc="T T T"
Si      -0.95858505       1.98711936      -0.63203926       0.00000000
Si      -1.66469139      -1.02381347       1.23419754       0.00000000
Si       1.66102614       0.53076078       1.53926540       0.00000000
Si       0.95566914      -0.61203159      -2.10284319       0.00000000
Si       2.42066142       1.22541525      -1.95209731       0.00000000
Si      -1.01033838      -3.15637388       0.45828949       0.00000000
Si       3.50039520       0.74463219       0.05567007       0.00000000
Si       0.85234167       3.04267878      -1.73887303       0.00000000
Si       1.81136655      -1.45791753       2.84763239       0.00000000
Si       1.06557777      -3.28944689       1.58919309       0.00000000
