10
Lattice="16.28999089631971 0.0 0.0 0.0 16.28999089631971 0.0 0.0 0.0 34.385447050020396" Properties=species:S:1:pos:R:3:initial_magmoms:R:1 pbc="T T T"
Si       0.87219918      -0.87320916       2.03641047       0.00000000
Si       1.97089452       0.77475240      -1.14493287       0.00000000
Si      -1.15784433      -2.03699934      -0.55367478       0.00000000
Si      -1.77461631       1.67500296       0.19032356       0.00000000
Si      -2.51336781      -2.28154482       1.39178613       0.00000000
Si      -1.74632058       2.28323898       2.43559135       0.00000000
Si       0.60178518       2.78601354       2.51178954       0.00000000
Si      -0.93872754      -1.92876858       3.14324424       0.00000000
Si       1.56025620      -0.14946075      -3.50635477       0.00000000
Si      -0.98227071       3.63511350      -0.87418171       0.00000000
