10
Lattice="16.28999089631971 0.0 0.0 0.0 16.28999089631971 0.0 0.0 0.0 34.385447050020396" Properties=species:S:1:pos:R:3:initial_magmoms:R:1 pbc="T T T"
Si       0.86716557       1.75567104       1.30135236       0.00000000
Si      -1.81092672      -1.05555942       1.10683377       0.00000000
Si      -0.87219918       0.87320916      -2.03641047       0.00000000
Si       1.56831975      -1.81726353      -0.21322428       0.00000000
Si      -2.03004351      -1.16379018      -2.59008525       0.00000000
Si      -0.85234167      -3.04267878       1.73887303       0.00000000
Si       0.10332747      -3.65471037      -0.36397016       0.00000000
Si      -0.22532328       1.35698958       3.42135389       0.00000000
Si      -0.27041400       3.65922270       0.47537907       0.00000000
Si      -3.38556699      -1.40833566      -0.64462434       0.00000000
