10
Lattice="16.28999089631971 0.0 0.0 0.0 16.28999089631971 0.0 0.0 0.0 34.385447050020396" Properties=species:S:1:pos:R:3:initial_magmoms:R:1 pbc="T T T"
Si      -1.29966507       1.15614691      -1.61622007       0.00000000
Si       2.29172607       0.70763434       0.00481397       0.00000000
Si       0.24501789      -2.36926062      -0.50759825       0.00000000
Si      -1.54106821       0.38235562       1.87448931       0.00000000
Si      -0.67952106      -2.91225519       1.71844806       0.00000000
Si      -0.94662819       3.40980325      -0.64049808       0.00000000
Si      -2.26789543       2.53340125       1.20166889       0.00000000
Si      -2.87923795      -1.61017920       1.77511531       0.00000000
Si       2.92920264      -1.07770797       2.20304244       0.00000000
Si       3.48307893      -0.72786652      -1.49146960       0.00000000
