10
Lattice="16.28999089631971 0.0 0.0 0.0 16.28999089631971 0.0 0.0 0.0 34.385447050020396" Properties=species:S:1:pos:R:3:initial_magmoms:R:1 pbc="T T T"
Si      -1.94180058      -1.22872212      -0.03483248       0.00000000
Si       0.50026590       0.24425226       2.29091007       0.00000000
Si       0.11789073       1.12493853      -2.11205849       0.00000000
Si       0.54359730      -2.38897737      -0.29808761       0.00000000
Si      -2.13658011       1.76234994      -1.89040978       0.00000000
Si       2.08806849      -1.56792879       2.14874779       0.00000000
Si      -3.02366835      -0.49355442      -1.90354503       0.00000000
Si       2.28556845       1.94724144      -2.14953865       0.00000000
Si       0.03173292      -0.56816262      -3.71493700       0.00000000
Si      -1.37060802      -0.63329004       3.46139031       0.00000000
