10
Lattice="16.28999089631971 0.0 0.0 0.0 16.28999089631971 0.0 0.0 0.0 34.385447050020396" Properties=species:S:1:pos:R:3:initial_magmoms:R:1 pbc="T T T"
Si      -1.12469418       1.74382821      -1.16467013       0.00000000
Si       0.49604679      -1.63279557      -1.66432534       0.00000000
Si       1.99790334       1.03646754       0.79344463       0.00000000
Si      -1.88758746      -0.73722024       1.29017708       0.00000000
Si      -1.57599234      -2.62791909      -2.15026075       0.00000000
Si       0.32768964       2.30594724      -2.98668721       0.00000000
Si      -2.63665053      -2.73184929      -0.04624845       0.00000000
Si       1.47312099      -3.48682563      -0.55033939       0.00000000
Si      -2.99286396       1.29715641       2.05772946       0.00000000
Si       3.37633056       1.91109393      -0.94185231       0.00000000
