10
Lattice="16.28999089631971 0.0 0.0 0.0 16.28999089631971 0.0 0.0 0.0 34.385447050020396" Properties=species:S:1:pos:R:3:initial_magmoms:R:1 pbc="T T T"
Si       1.35925389      -1.35456507       1.35581893       0.00000000
Si      -1.35754344      -1.35630076      -1.35771014       0.00000000
Si       1.35829743       1.35814128      -1.35757259       0.00000000
Si      -1.35897696       1.35716388       1.35856977       0.00000000
Si       2.68337581       0.00948567       2.71638306       0.00000000
Si      -2.71494027      -2.71381204      -0.00027508       0.00000000
Si      -2.71459818       0.00056038      -2.71473256       0.00000000
Si       2.71380716      -2.71609264       0.00027508       0.00000000
Si       0.00003258      -2.71495234      -2.71517957       0.00000000
Si       0.00094482       2.71648293      -2.71407924       0.00000000
