10
Lattice="16.28999089631971 0.0 0.0 0.0 16.28999089631971 0.0 0.0 0.0 34.385447050020396" Properties=species:S:1:pos:R:3:initial_magmoms:R:1 pbc="T T T"
Si       0.83401542      -0.87599964       1.99167498       0.00000000
Si       1.85766273       0.81173070      -1.22711413       0.00000000
Si      -0.80684370      -1.89817873      -1.26731074       0.00000000
Si      -1.79302401       1.87165584       0.17450624       0.00000000
Si       0.56835810       2.14936776      -2.66563012       0.00000000
Si      -2.16026577      -0.57723778      -2.66738377       0.00000000
Si      -3.49068636       0.72247779      -1.16195368       0.00000000
Si      -0.80767449       3.47123610      -1.26259994       0.00000000
Si       2.45071062       0.65169774       2.83948303       0.00000000
Si      -2.57149053      -2.92515362      -0.02960589       0.00000000
