10
Lattice="16.28999089631971 0.0 0.0 0.0 16.28999089631971 0.0 0.0 0.0 34.385447050020396" Properties=species:S:1:pos:R:3:initial_magmoms:R:1 pbc="T T T"
Si      -1.35462753       1.35321030       1.36077044       0.00000000
Si       1.35625653       1.35547461      -1.35705681       0.00000000
Si       1.35443205      -1.36052451       1.35918871       0.00000000
Si      -1.35809730      -1.35951453      -1.35671296       0.00000000
Si      -0.00604359       2.70462870       2.72267560       0.00000000
Si       2.71526607       2.71233387       0.00010316       0.00000000
Si      -0.00078192       2.71331127      -2.71435432       0.00000000
Si       2.71435383      -0.00120546      -2.71346030       0.00000000
Si      -2.71573848       2.71309950       0.00075648       0.00000000
Si      -2.71604799      -0.00223173      -2.71445748       0.00000000
