10
Lattice="16.28999089631971 0.0 0.0 0.0 16.28999089631971 0.0 0.0 0.0 34.385447050020396" Properties=species:S:1:pos:R:3:initial_magmoms:R:1 pbc="T T T"
Si      -0.85300956      -1.71789453      -1.42582774       0.00000000
Si       1.71714519       0.88435152      -1.46585243       0.00000000
Si       1.13298579      -0.58355667       2.08351856       0.00000000
Si      -1.53815067       1.95626610      -0.20693174       0.00000000
Si      -2.54438397      -1.08450675       1.17790853       0.00000000
Si      -2.21035752      -0.34580412      -2.82703549       0.00000000
Si       1.82677689       1.79273079       2.66157263       0.00000000
Si       0.52220853       2.37967578      -2.84195879       0.00000000
Si      -1.83835908      -3.31747479       0.01127843       0.00000000
Si      -3.44544903       1.06609905      -1.37142994       0.00000000
