10
Lattice="16.28999089631971 0.0 0.0 0.0 16.28999089631971 0.0 0.0 0.0 34.385447050020396" Properties=species:S:1:pos:R:3:initial_magmoms:R:1 pbc="T T T"
Si      -1.35601373       1.35632169       1.35379019       0.00000000
Si      -1.35552275      -1.35865116      -1.35695366       0.00000000
Si       1.35953408       1.35622395      -1.35650664       0.00000000
Si       1.35893135      -1.35858600       1.36183639       0.00000000
Si      -0.03521246       2.71288773       2.69946541       0.00000000
Si      -2.69989224       0.01156590       2.72085317       0.00000000
Si      -0.03044438      -2.70730678       2.71700200       0.00000000
Si      -2.71196313       2.71322982       0.00010316       0.00000000
Si      -2.71287537      -0.00030951      -2.71346030       0.00000000
Si       0.00179190       2.71404432      -2.71256628       0.00000000
