10
Lattice="16.28999089631971 0.0 0.0 0.0 16.28999089631971 0.0 0.0 0.0 34.385447050020396" Properties=species:S:1:pos:R:3:initial_magmoms:R:1 pbc="T T T"
Si       1.35490446       1.35687555       1.35874170       0.00000000
Si       1.35264015      -1.36296801      -1.35523438       0.00000000
Si      -1.35988920      -1.35796698       1.35815715       0.00000000
Si      -1.36373364       1.35648459      -1.36204270       0.00000000
Si       0.00477297      -2.68781742      -2.72071563       0.00000000
Si       2.71271634      -0.00091224       2.71521396       0.00000000
Si       2.71339272       2.71463076       0.00020631       0.00000000
Si       2.71453302      -2.71459818       0.00395433       0.00000000
Si      -0.00280188       2.71402803       2.71559220       0.00000000
Si      -0.00285075      -2.71580364       2.71545466       0.00000000
