10
Lattice="16.28999089631971 0.0 0.0 0.0 16.28999089631971 0.0 0.0 0.0 34.385447050020396" Properties=species:S:1:pos:R:3:initial_magmoms:R:1 pbc="T T T"
Si       1.35770634      -1.35715248      -1.35685050       0.00000000
Si      -1.35739683       1.35896067      -1.35640349       0.00000000
Si       1.35793440       1.35677781       1.35836346       0.00000000
Si      -1.35817875      -1.35873261       1.35819153       0.00000000
Si       0.00127062       2.71538010      -2.71332276       0.00000000
Si      -2.71471221       0.00337203      -2.71407924       0.00000000
Si      -2.71453302      -2.71507059       0.00000000       0.00000000
Si       0.00280188      -2.71402803      -2.71559220       0.00000000
Si       2.71551822      -2.71494027      -0.00037824       0.00000000
Si       2.71514298       2.71541268       0.00013754       0.00000000
