10
Lattice="16.28999089631971 0.0 0.0 0.0 16.28999089631971 0.0 0.0 0.0 34.385447050020396" Properties=species:S:1:pos:R:3:initial_magmoms:R:1 pbc="T T T"
Si      -1.24020657       1.39286016       1.38669708       0.00000000
Si       1.34873647       1.34965908      -1.35172706       0.00000000
Si      -1.37002158      -1.35878148      -1.34804782       0.00000000
Si       1.19493666      -1.49532426       1.37610636       0.00000000
Si      -2.06035920      -0.42340968       2.63502705       0.00000000
Si       0.36489600       2.45226402       2.80107447       0.00000000
Si      -0.52220853      -2.37967578       2.84195879       0.00000000
Si       2.66549427      -2.71811682      -0.00828690       0.00000000
Si       2.70305087      -0.00099369      -2.70785547       0.00000000
Si       2.70827344       2.70764235      -0.00942162       0.00000000
