10
Lattice="16.28999089631971 0.0 0.0 0.0 16.28999089631971 0.0 0.0 0.0 34.385447050020396" Properties=species:S:1:pos:R:3:initial_magmoms:R:1 pbc="T T T"
Si       1.22637636       1.54668663       1.32170855       0.00000000
Si       1.71786195      -1.22557815      -1.23963044       0.00000000
Si      -1.30451949      -1.85694597       1.09882196       0.00000000
Si      -2.05351740       0.26261109      -1.49418605       0.00000000
Si       1.57553622       2.68539021      -0.74011278       0.00000000
Si      -0.00379557      -2.47749723      -2.31249138       0.00000000
Si      -0.97303428       3.30151059       1.03630918       0.00000000
Si      -3.54185325      -0.78170823       1.35124567       0.00000000
Si       2.55921343      -2.90173770       0.37414826       0.00000000
Si      -1.77098364       2.38485600      -2.51117060       0.00000000
