10
Lattice="16.28999089631971 0.0 0.0 0.0 16.28999089631971 0.0 0.0 0.0 34.385447050020396" Properties=species:S:1:pos:R:3:initial_magmoms:R:1 pbc="T T T"
Si      -1.34969166       1.34887716       1.35788206       0.00000000
Si      -1.35583299      -1.34843733      -1.37798381       0.00000000
Si       1.36523232      -1.36590021       1.35581893       0.00000000
Si       1.36143675       1.31906646      -1.40764815       0.00000000
Si       0.32428503      -2.34061236      -2.72964554       0.00000000
Si       2.33484474      -0.61136370      -2.84645984       0.00000000
Si      -2.70705591       2.70381420      -0.00171927       0.00000000
Si       0.00617391       2.70554094       2.71356346       0.00000000
Si      -2.70835911      -0.00754227       2.71480133       0.00000000
Si       2.71935064       2.70902700      -0.00852760       0.00000000
