10
Lattice="16.28999089631971 0.0 0.0 0.0 16.28999089631971 0.0 0.0 0.0 34.385447050020396" Properties=species:S:1:pos:R:3:initial_magmoms:R:1 pbc="T T T"
Si      -1.98909045       0.67403133       1.05666538       0.00000000
Si      -0.79379541       1.08210481      -1.93143164       0.00000000
Si       1.92928401       1.29850752       0.35251980       0.00000000
Si      -0.32371488      -2.24039628       0.88635416       0.00000000
Si      -1.41258735       0.10200798       3.21995822       0.00000000
Si      -3.46828761      -0.71193816      -0.13341561       0.00000000
Si       3.59995058      -0.18370233      -0.47173421       0.00000000
Si      -2.31018264      -2.81688309      -0.24771290       0.00000000
Si       2.23193755       1.39730637       2.66927498       0.00000000
Si      -0.43145694      -2.00394693       3.21889227       0.00000000
