10
Lattice="16.28999089631971 0.0 0.0 0.0 16.28999089631971 0.0 0.0 0.0 34.385447050020396" Properties=species:S:1:pos:R:3:initial_magmoms:R:1 pbc="T T T"
Si      -1.10973996       0.20965230      -2.06371253       0.00000000
Si      -0.34915986      -1.13870358       2.06182133       0.00000000
Si       2.25734507       0.50692851      -0.59156756       0.00000000
Si      -0.60170373       2.08656981       1.30740420       0.00000000
Si      -2.54857050       0.61612038       1.77642196       0.00000000
Si      -1.57553622      -2.68539021       0.74011278       0.00000000
Si      -0.21714570       2.43027252      -2.34725508       0.00000000
Si       3.20299586      -1.63576035      -0.95254619       0.00000000
Si      -0.41682852      -1.74030957      -3.26414354       0.00000000
Si       1.96891270       1.64092428      -2.71552343       0.00000000
