10
Lattice="16.28999089631971 0.0 0.0 0.0 16.28999089631971 0.0 0.0 0.0 34.385447050020396" Properties=species:S:1:pos:R:3:initial_magmoms:R:1 pbc="T T T"
Si      -1.96699699       0.94648158      -0.91867650       0.00000000
Si       1.60159533       1.62331479      -0.70118843       0.00000000
Si      -0.50708001      -0.31297977       2.31060018       0.00000000
Si       0.18696359      -2.23099695      -0.83711418       0.00000000
Si      -3.07382104      -1.03032621      -1.42613721       0.00000000
Si       0.01544455      -1.69420887      -3.15569178       0.00000000
Si      -2.07104122      -2.99845143      -0.57375589       0.00000000
Si      -2.96433595       2.13465789       0.80926195       0.00000000
Si       3.33380877       0.43792407      -1.90688042       0.00000000
Si      -0.40132696       1.71041742       3.49590158       0.00000000
