10
Lattice="16.28999089631971 0.0 0.0 0.0 16.28999089631971 0.0 0.0 0.0 34.385447050020396" Properties=species:S:1:pos:R:3:initial_magmoms:R:1 pbc="T T T"
Si       0.35220609       2.23365222      -0.42854607       0.00000000
Si       0.00996948      -0.60618348       2.24612743       0.00000000
Si       1.68788835      -0.27572454      -1.70063639       0.00000000
Si      -2.06650053      -1.20910896      -0.48370035       0.00000000
Si      -0.05910012      -1.04718636      -3.10067504       0.00000000
Si       1.01639826      -3.33513315       0.59782572       0.00000000
Si      -1.04503608      -2.80417689      -1.89391710       0.00000000
Si      -0.67254894      -2.93042439       2.14836955       0.00000000
Si      -1.44847422       0.97122609       3.26727262       0.00000000
Si       2.25057753      -0.67170186       2.86554722       0.00000000
