10
Lattice="16.28999089631971 0.0 0.0 0.0 16.28999089631971 0.0 0.0 0.0 34.385447050020396" Properties=species:S:1:pos:R:3:initial_magmoms:R:1 pbc="T T T"
Si       1.43612640      -1.23437475      -1.30516914       0.00000000
Si      -1.27802706       1.47232278      -1.29327177       0.00000000
Si      -0.98593596      -1.75699053       1.20675794       0.00000000
Si       1.74698847       0.77146182       1.40003864       0.00000000
Si       0.05910012       1.04718636       3.10067504       0.00000000
Si      -2.00740041      -0.16192260       2.61697468       0.00000000
Si       0.07565076      -2.59256979      -2.63155412       0.00000000
Si       0.86394015      -3.43850949       1.13406706       0.00000000
Si       2.77943238      -2.47352247       0.14252776       0.00000000
Si      -2.63756404       0.11433951      -2.63557722       0.00000000
