10
Lattice="16.28999089631971 0.0 0.0 0.0 16.28999089631971 0.0 0.0 0.0 34.385447050020396" Properties=species:S:1:pos:R:3:initial_magmoms:R:1 pbc="T T T"
Si      -0.94565079       2.14268886       0.36097862       0.00000000
Si       1.75541040       0.19287360      -1.62598554       0.00000000
Si      -1.76668960      -1.14929208      -1.22054651       0.00000000
Si       0.28048122      -0.84196494       2.36004648       0.00000000
Si       0.51934149       0.02917539      -3.63495641       0.00000000
Si      -3.20299586       1.63576035       0.95254619       0.00000000
Si       0.46146312       3.12865740       2.09606925       0.00000000
Si      -0.71309475      -1.99679562      -3.17532588       0.00000000
Si      -3.06067013      -2.27520801       0.45302852       0.00000000
Si       2.61495225       2.62901052       1.02018240       0.00000000
