10
Lattice="16.28999089631971 0.0 0.0 0.0 16.28999089631971 0.0 0.0 0.0 34.385447050020396" Properties=species:S:1:pos:R:3:initial_magmoms:R:1 pbc="T T T"
Si       0.83305268       2.21402277       0.25431491       0.00000000
Si      -2.25602721       0.12541671      -1.05343314       0.00000000
Si      -0.58262162      -0.54160992       2.42440029       0.00000000
Si       1.57660973      -1.21360500      -1.70775418       0.00000000
Si      -1.36666421       3.51609876       0.31098216       0.00000000
Si       1.75759163       2.75701734      -1.97173141       0.00000000
Si      -1.90686735       1.26412029      -3.11525447       0.00000000
Si       1.29381533      -3.60181674      -1.48871876       0.00000000
Si       0.35047772       1.77104880      -3.70682203       0.00000000
Si       1.16602028      -1.31492880       3.88067293       0.00000000
