10
Lattice="16.28999089631971 0.0 0.0 0.0 16.28999089631971 0.0 0.0 0.0 34.385447050020396" Properties=species:S:1:pos:R:3:initial_magmoms:R:1 pbc="T T T"
Si       1.82853621       1.38166893      -0.24736904       0.00000000
Si      -0.14750595      -1.18946322       1.99157182       0.00000000
Si       0.41858784      -1.95457194      -1.33969215       0.00000000
Si      -1.39567344       1.90465842      -0.47792360       0.00000000
Si      -2.11762574      -2.20920093       1.22150930       0.00000000
Si       1.99980927       1.09281465      -2.59369572       0.00000000
Si       2.42960463      -2.59444314      -0.19867922       0.00000000
Si      -0.02766042       0.32364972      -3.61893278       0.00000000
Si       1.37932317       3.17922875       1.20163450       0.00000000
Si      -1.22323076      -3.48280200      -0.54009252       0.00000000
