10
Lattice="10.86 0.0 0.0 0.0 10.86 0.0 0.0 0.0 10.86" Properties=species:S:1:pos:R:3:initial_magmoms:R:1 pbc="T T T"
Si      -1.21248642      -0.83149590      -1.67039832       0.00000000
Si      -1.15351662       1.78210428       1.09841298       0.00000000
Si       0.23923494      -1.88683812       1.73640540       0.00000000
Si       1.43720154       1.52602548      -1.68092166       0.00000000
Si      -2.40131976       0.19774974       2.34716094       0.00000000
Si      -2.40131976      -2.51725026      -0.36783906       0.00000000
Si       0.31368024       2.91274974       2.34716094       0.00000000
Si      -2.40131976       2.91274974      -0.36783906       0.00000000
Si      -2.40131976       0.19774974      -3.08283906       0.00000000
Si      -0.78083400      -1.26755748       3.69444168       0.00000000
