10
Lattice="10.86 0.0 0.0 0.0 10.86 0.0 0.0 0.0 10.86" Properties=species:S:1:pos:R:3:initial_magmoms:R:1 pbc="T T T"
Si      -1.12352130       1.38672426      -1.40191740       0.00000000
Si       1.59147870       1.38672426       1.31308260       0.00000000
Si       1.59147870      -1.32827574      -1.40191740       0.00000000
Si      -1.43720154      -1.52602548       1.68092166       0.00000000
Si      -2.64968796      -2.35752138       0.01052334       0.00000000
Si      -2.48102130       2.74422426      -0.04441740       0.00000000
Si      -2.48102130       0.02922426      -2.75941740       0.00000000
Si      -2.59071816       0.25607880       2.77933464       0.00000000
Si       0.23397870       2.74422426       2.67058260       0.00000000
Si       0.23397870      -2.68577574      -2.75941740       0.00000000
