10
Lattice="16.28999089631971 0.0 0.0 0.0 16.28999089631971 0.0 0.0 0.0 34.51007289658418" Properties=species:S:1:pos:R:3:initial_magmoms:R:1 pbc="T T T"
Si       0.84378453      -1.73517822       1.34382299       0.00000000
Si       1.39155207       1.28734545      -1.39959130       0.00000000
Si      -1.29862414      -1.44081792      -1.41132473       0.00000000
Si      -1.00075660       1.71743419       1.42029735       0.00000000
Si       1.76697141      -0.25404255       2.94674775       0.00000000
Si       2.62623633       1.63111185       1.67280770       0.00000000
Si      -2.84766697      -2.43113589       0.16561393       0.00000000
Si      -2.76230737       2.53547890       0.13772978       0.00000000
Si       0.02556064       2.57162967      -2.76764037       0.00000000
Si      -1.28852466      -2.88241776       2.12979034       0.00000000
