10
Lattice="16.28999089631971 0.0 0.0 0.0 16.28999089631971 0.0 0.0 0.0 34.51007289658418" Properties=species:S:1:pos:R:3:initial_magmoms:R:1 pbc="T T T"
Si      -0.92318688      -1.48113567      -1.60292476       0.00000000
Si      -1.85272360       0.33857136       1.47530644       0.00000000
Si       0.85926492       1.88515440      -1.27394005       0.00000000
Si       1.99037736      -0.69232500       1.26862550       0.00000000
Si      -1.01222802       3.22146872      -0.49684180       0.00000000
Si      -1.76697141       0.25404255      -2.94674775       0.00000000
Si      -2.76772801       1.97147674      -1.52645040       0.00000000
Si       3.67223841       1.01162529       0.90937544       0.00000000
Si      -3.09147452       2.23818966       0.90899583       0.00000000
Si       0.84088980      -2.55419055      -2.89494810       0.00000000
