10
Lattice="16.28999089631971 0.0 0.0 0.0 16.28999089631971 0.0 0.0 0.0 34.51007289658418" Properties=species:S:1:pos:R:3:initial_magmoms:R:1 pbc="T T T"
Si       0.63868203       1.92955050       1.23238990       0.00000000
Si      -0.39591216      -1.56116844       1.78613884       0.00000000
Si       0.95583204      -0.13962159      -2.21216593       0.00000000
Si      -2.07122463       0.62946189      -1.07809528       0.00000000
Si       2.79748170      -0.58424085       1.17120351       0.00000000
Si      -0.89119332       1.05968079      -3.07622962       0.00000000
Si       0.40382910       1.21184568       3.47382039       0.00000000
Si       2.67804342      -2.69247636      -0.02312176       0.00000000
Si      -0.89668305       3.62953322       0.72253780       0.00000000
Si      -2.95488382       2.60146643      -0.05569929       0.00000000
