10
Lattice="16.28999089631971 0.0 0.0 0.0 16.28999089631971 0.0 0.0 0.0 34.51007289658418" Properties=species:S:1:pos:R:3:initial_magmoms:R:1 pbc="T T T"
Si      -1.35350352      -1.33801729       1.38277453       0.00000000
Si       1.35715248       1.38322625       1.37580349       0.00000000
Si      -1.56704913       1.13963374      -1.39629558       0.00000000
Si       1.51355277      -1.34381653      -1.49474252       0.00000000
Si       0.30012696       2.35894024      -2.58028612       0.00000000
Si       2.22003378       0.68223823      -2.64310415       0.00000000
Si      -2.69076591      -2.68423918       0.00609103       0.00000000
Si       2.73502584      -2.67451405       0.02430546       0.00000000
Si      -0.00405621      -2.68790443       2.73853801       0.00000000
Si      -2.71492398       0.02297346       2.73843448       0.00000000
