10
Lattice="16.28999089631971 0.0 0.0 0.0 16.28999089631971 0.0 0.0 0.0 34.51007289658418" Properties=species:S:1:pos:R:3:initial_magmoms:R:1 pbc="T T T"
Si      -0.69374223       1.83883312       1.23156166       0.00000000
Si       0.67109913      -1.75696351       1.37326010       0.00000000
Si      -2.14187436      -0.88343439      -0.81005539       0.00000000
Si       2.51998155      -0.14391563      -0.38789344       0.00000000
Si       2.50844823      -2.49064882       0.07416219       0.00000000
Si       1.35123921       2.35683883       2.33557402       0.00000000
Si      -2.30557257       0.54451117      -2.69758489       0.00000000
Si       1.32181947       2.36925181      -2.54422204       0.00000000
Si      -1.56022362       3.52618390      -0.41429366       0.00000000
Si       2.85938370       0.50642515      -2.63063531       0.00000000
