10
Lattice="16.28999089631971 0.0 0.0 0.0 16.28999089631971 0.0 0.0 0.0 34.51007289658418" Properties=species:S:1:pos:R:3:initial_magmoms:R:1 pbc="T T T"
Si      -0.35100063       2.03607244      -1.15701986       0.00000000
Si      -2.22475788      -0.69408988       0.50691874       0.00000000
Si       1.41685533      -1.25303236      -1.46308987       0.00000000
Si       1.43778798       0.38487894       1.89305111       0.00000000
Si      -0.06595821      -3.20788123       0.44573235       0.00000000
Si       2.21674320      -2.72359582       0.23732590       0.00000000
Si       2.86005159       0.38309519      -2.38012655       0.00000000
Si      -2.63855646       2.00072314      -1.77882270       0.00000000
Si       3.01687542       2.01735523       1.22490121       0.00000000
Si       1.30802184       2.16824950      -2.88369781       0.00000000
