10
Lattice="16.28999089631971 0.0 0.0 0.0 16.28999089631971 0.0 0.0 0.0 34.51007289658418" Properties=species:S:1:pos:R:3:initial_magmoms:R:1 pbc="T T T"
Si       0.60787764       2.36408625      -0.06325700       0.00000000
Si       1.28073609      -1.10326306      -1.84387423       0.00000000
Si      -2.31873489      -0.99285595       0.54722653       0.00000000
Si       1.39540140       0.44558037       2.14731150       0.00000000
Si      -0.47177469      -0.77372613       3.33130203       0.00000000
Si       1.77000624       2.52291375      -2.17027068       0.00000000
Si       2.85982353       0.52921323      -2.51202412       0.00000000
Si      -0.15705189      -1.48814200      -3.73692533       0.00000000
Si      -2.61666270      -2.89993670      -0.98857610       0.00000000
Si      -1.25046927       3.86260335      -0.00213963       0.00000000
