10
Lattice="16.28999089631971 0.0 0.0 0.0 16.28999089631971 0.0 0.0 0.0 34.51007289658418" Properties=species:S:1:pos:R:3:initial_magmoms:R:1 pbc="T T T"
Si      -1.35166275       1.35689184      -1.36024979       0.00000000
Si       1.36243044      -1.35900954      -1.35893841       0.00000000
Si       1.35322659       1.37238363       1.35759252       0.00000000
Si      -1.34566803      -1.35430173       1.38520059       0.00000000
Si       2.67631668      -0.06529032       2.63815851       0.00000000
Si      -2.71024875       2.71288773       0.00024157       0.00000000
Si      -2.71008585      -0.00146610      -2.71701407       0.00000000
Si      -2.71046052      -2.71862181       0.00051765       0.00000000
Si       0.00426798       2.71298547      -2.71722113       0.00000000
Si       2.72334591       2.70839169       0.00031059       0.00000000
