10
Lattice="16.28999089631971 0.0 0.0 0.0 16.28999089631971 0.0 0.0 0.0 34.51007289658418" Properties=species:S:1:pos:R:3:initial_magmoms:R:1 pbc="T T T"
Si       1.12199004       1.59567066      -1.44687012       0.00000000
Si      -0.80912430       1.90094526       1.29944301       0.00000000
Si      -1.69666866      -1.05860565      -1.46636833       0.00000000
Si       2.14713603      -0.92506023       0.84611844       0.00000000
Si       0.12538413      -1.74011409       1.91396422       0.00000000
Si      -0.16623945       0.21305691       3.16664606       0.00000000
Si      -1.63906722      -3.02479236       0.98139800       0.00000000
Si       2.37907305       0.22647987      -2.92624876       0.00000000
Si       2.37200319       2.95308378       0.06891665       0.00000000
Si      -0.31982157      -2.50020549      -2.89864068       0.00000000
