10
Lattice="16.28999089631971 0.0 0.0 0.0 16.28999089631971 0.0 0.0 0.0 34.51007289658418" Properties=species:S:1:pos:R:3:initial_magmoms:R:1 pbc="T T T"
Si      -0.23669370      -2.15734986      -0.94619771       0.00000000
Si      -1.87597269       0.34629282       1.40953021       0.00000000
Si       1.89001467      -0.22217931       1.42012480       0.00000000
Si       0.43173387       1.89939771      -1.37025772       0.00000000
Si       0.40653324      -3.38641407       0.97118301       0.00000000
Si       0.96876630       0.15859944       3.53811269       0.00000000
Si       3.30657678       1.50679242       0.69199637       0.00000000
Si      -1.24654338      -0.73383192       3.40735395       0.00000000
Si       2.59072902      -2.46498651       1.10121704       0.00000000
Si       2.14909083       1.28433618      -2.88953002       0.00000000
