10
Lattice="16.28999089631971 0.0 0.0 0.0 16.28999089631971 0.0 0.0 0.0 34.51007289658418" Properties=species:S:1:pos:R:3:initial_magmoms:R:1 pbc="T T T"
Si      -1.98001692      -0.21900276       1.17044429       0.00000000
Si       1.67151690      -0.47687346       1.58370264       0.00000000
Si       0.31824144       2.14465995      -0.92442184       0.00000000
Si       0.45525663      -1.34527707      -1.93639578       0.00000000
Si       2.67056631      -0.45284571      -1.80563704       0.00000000
Si       2.62725120       1.82667915      -1.11833405       0.00000000
Si       3.10998906      -1.70844633       0.09338431       0.00000000
Si      -2.95015158      -2.11108626       0.24315811       0.00000000
Si      -3.37527171       1.33022511       0.25955040       0.00000000
Si       0.84546729      -2.16308394       2.94716187       0.00000000
