10
Lattice="16.28999089631971 0.0 0.0 0.0 16.28999089631971 0.0 0.0 0.0 34.51007289658418" Properties=species:S:1:pos:R:3:initial_magmoms:R:1 pbc="T T T"
Si       0.20992923      -1.39128003      -1.84229060       0.00000000
Si      -0.81192618      -1.89473877       1.14885926       0.00000000
Si       2.00200842       0.82233549       1.01107427       0.00000000
Si      -1.66127049       1.91244600      -0.24992592       0.00000000
Si      -2.14443189      -0.52724214       2.50744567       0.00000000
Si       0.60121503       2.20931496       2.49035627       0.00000000
Si       0.38320596       0.37910088      -3.34441138       0.00000000
Si      -3.36860584       0.94574853       1.12919886       0.00000000
Si      -1.84467960      -2.40849279      -2.20271400       0.00000000
Si      -0.57954933       3.70506276       1.07085265       0.00000000
