10
Lattice="16.28999089631971 0.0 0.0 0.0 16.28999089631971 0.0 0.0 0.0 34.51007289658418" Properties=species:S:1:pos:R:3:initial_magmoms:R:1 pbc="T T T"
Si      -0.12604062       2.22855345      -0.67981431       0.00000000
Si      -1.16676540      -1.32095936      -1.54291171       0.00000000
Si      -0.67249958      -0.08827551       2.24798740       0.00000000
Si       2.26821634       0.26119386      -0.55726897       0.00000000
Si       2.12579287       2.75331951      -0.33816439       0.00000000
Si       0.82442387      -2.17237643      -2.69006169       0.00000000
Si       3.30509113      -1.08749759       0.97211479       0.00000000
Si      -3.01771665      -0.22136481       2.03126403       0.00000000
Si       0.09612729       1.95535386       3.15698323       0.00000000
Si      -0.57868107       2.26896894      -3.02860569       0.00000000
