10
Lattice="16.28999089631971 0.0 0.0 0.0 16.28999089631971 0.0 0.0 0.0 34.51007289658418" Properties=species:S:1:pos:R:3:initial_magmoms:R:1 pbc="T T T"
Si      -1.81654677       1.03539240       1.12875610       0.00000000
Si      -1.25001315      -1.35741312      -1.51578678       0.00000000
Si       1.29451743       1.22451930      -1.60451223       0.00000000
Si      -0.67491099      -1.20985830       3.01797658       0.00000000
Si      -3.18112749      -1.05213852       1.23052636       0.00000000
Si       2.21646627       2.97157293      -0.39676253       0.00000000
Si       2.92478805       1.82899233       1.53052259       0.00000000
Si      -2.37200319      -2.95308378      -0.06891665       0.00000000
Si      -2.84664492       2.74782978      -0.17172222       0.00000000
Si      -0.22486716      -3.87814401       0.77720179       0.00000000
