10
Lattice="16.28999089631971 0.0 0.0 0.0 16.28999089631971 0.0 0.0 0.0 34.51007289658418" Properties=species:S:1:pos:R:3:initial_magmoms:R:1 pbc="T T T"
Si      -0.88663212       1.69468128       1.36487415       0.00000000
Si       2.00818233      -0.59593707       1.15287865       0.00000000
Si      -1.86333165      -1.53016857       0.07975282       0.00000000
Si      -2.50621650       0.15771978      -1.78745022       0.00000000
Si      -1.14163578       2.24525070      -1.88922049       0.00000000
Si       0.67491099       1.20985830      -3.01797658       0.00000000
Si       0.45004383      -2.66828571      -2.24077480       0.00000000
Si       2.41512282       1.60770897       2.02418946       0.00000000
Si      -0.26138934       3.64581603       0.15229304       0.00000000
Si      -2.88587124       0.83681730       2.33761011       0.00000000
