10
Lattice="16.28999089631971 0.0 0.0 0.0 16.28999089631971 0.0 0.0 0.0 34.51007289658418" Properties=species:S:1:pos:R:3:initial_magmoms:R:1 pbc="T T T"
Si      -0.20992923       1.39128003       1.84229060       0.00000000
Si      -2.05460883      -1.01721276      -0.36042340       0.00000000
Si       0.17327673       1.77038091      -1.50212078       0.00000000
Si       1.55761722      -1.86134427      -0.13362308       0.00000000
Si      -0.78811020      -1.03408920      -2.64650995       0.00000000
Si       1.22857551       0.21805794      -2.87928052       0.00000000
Si      -1.02185541      -0.50345874       2.99114986       0.00000000
Si      -1.88336835      -2.22581673       1.66882669       0.00000000
Si       2.84459238      -1.13642298      -1.90350766       0.00000000
Si      -3.55719843       0.94447791      -0.25813549       0.00000000
