10
Lattice="16.28999089631971 0.0 0.0 0.0 16.28999089631971 0.0 0.0 0.0 34.51007289658418" Properties=species:S:1:pos:R:3:initial_magmoms:R:1 pbc="T T T"
Si       0.67249958       0.08827551      -2.24798740       0.00000000
Si      -2.34521707      -0.13308930      -0.21672338       0.00000000
Si       0.76862687       2.04362937       0.90899583       0.00000000
Si       0.95573870      -1.57635561       1.50577885       0.00000000
Si       2.90134299       2.37141675      -0.10784404       0.00000000
Si      -3.20547568      -0.21742263       1.96900782       0.00000000
Si       0.54645896       2.31682896      -2.92780171       0.00000000
Si      -0.79883995       3.70758771       0.41205050       0.00000000
Si       3.01393947      -0.54828882       2.28401594       0.00000000
Si      -2.94149623      -2.34853649      -0.81064207       0.00000000
