10
Lattice="16.28999089631971 0.0 0.0 0.0 16.28999089631971 0.0 0.0 0.0 34.51007289658418" Properties=species:S:1:pos:R:3:initial_magmoms:R:1 pbc="T T T"
Si       1.35681039      -1.35729909       1.35672976       0.00000000
Si       1.35381303       1.35992178      -1.35752350       0.00000000
Si      -1.35863487       1.35733167       1.35686780       0.00000000
Si      -1.35687555      -1.35861858      -1.35779958       0.00000000
Si       0.00436572       2.70980892      -2.71328698       0.00000000
Si      -0.00179190      -2.71257822      -2.71259678       0.00000000
Si       2.71373481       0.00008145       2.71446032       0.00000000
Si       2.71407690       2.71466334      -0.00006902       0.00000000
Si       2.71420722      -2.71500543      -0.00048314       0.00000000
Si      -2.71538010      -0.00156384       2.71390816       0.00000000
