10
Lattice="16.28999089631971 0.0 0.0 0.0 16.28999089631971 0.0 0.0 0.0 34.51007289658418" Properties=species:S:1:pos:R:3:initial_magmoms:R:1 pbc="T T T"
Si       1.35646830      -1.35835794      -1.36052587       0.00000000
Si      -1.35824391       1.35681039      -1.36049136       0.00000000
Si       1.36798533       1.36430379       1.37288049       0.00000000
Si      -1.36928853      -1.36853919       1.36825613       0.00000000
Si       2.71404432       2.71440270      -0.00458984       0.00000000
Si      -2.71627605      -2.71495656      -0.00258826       0.00000000
Si       0.00000000       2.71384710      -2.71822192       0.00000000
Si       2.71466334      -0.00091224      -2.71825643       0.00000000
Si      -2.71816569       2.71538010      -0.00369258       0.00000000
Si       2.71876842      -2.71480995       0.00217414       0.00000000
