10
Lattice="16.28999089631971 0.0 0.0 0.0 16.28999089631971 0.0 0.0 0.0 34.51007289658418" Properties=species:S:1:pos:R:3:initial_magmoms:R:1 pbc="T T T"
Si       1.35637056      -1.35495333       1.35848978       0.00000000
Si      -1.35765747      -1.35570267      -1.35724742       0.00000000
Si       1.35674523       1.35889551      -1.35704035       0.00000000
Si      -1.35734796       1.35806472       1.36183726       0.00000000
Si       2.71352304      -2.71264338       0.00131138       0.00000000
Si      -2.71433754      -2.71191033       0.00020706       0.00000000
Si      -0.00013032      -2.71345788      -2.71463287       0.00000000
Si       2.71538010       0.00156384      -2.71390816       0.00000000
Si      -2.71508362       0.00104256      -2.71428777       0.00000000
Si       0.00006516       2.71637379      -2.71397718       0.00000000
