10
Lattice="16.28999089631971 0.0 0.0 0.0 16.28999089631971 0.0 0.0 0.0 34.51007289658418" Properties=species:S:1:pos:R:3:initial_magmoms:R:1 pbc="T T T"
Si       1.39569462      -1.31134500      -1.38961788       0.00000000
Si       0.82666863       1.85643188       1.21789566       0.00000000
Si      -1.34042265       1.38386223      -1.39831443       0.00000000
Si      -0.62727903      -1.85922657       1.36735887       0.00000000
Si       3.25281978      -0.46475370       1.53152338       0.00000000
Si       0.48726648       1.20609109       3.46063753       0.00000000
Si      -2.60403795      -2.65766463       0.11126054       0.00000000
Si      -2.51327007       2.83984289       0.05328358       0.00000000
Si       2.69801496       2.71872674       0.04641607       0.00000000
Si       2.68227882      -2.75289597       0.06229072       0.00000000
