10
Lattice="16.28999089631971 0.0 0.0 0.0 16.28999089631971 0.0 0.0 0.0 34.51007289658418" Properties=species:S:1:pos:R:3:initial_magmoms:R:1 pbc="T T T"
Si      -1.30935762      -0.38309193       1.93239261       0.00000000
Si       1.90094526       1.12458015       0.87396808       0.00000000
Si      -1.35723393       1.69393194      -1.03906437       0.00000000
Si       0.43109856      -2.10414672      -1.11936935       0.00000000
Si      -1.13627637       1.59694128       3.15511969       0.00000000
Si      -3.38934627      -1.20935331       1.17613845       0.00000000
Si       0.99054603       2.55010176       2.62200778       0.00000000
Si       3.14691849      -0.47016198       2.17934683       0.00000000
Si      -0.42199245      -3.83914575       0.25965393       0.00000000
Si      -0.91251693      -2.31453207      -3.04720663       0.00000000
