10
Lattice="16.28999089631971 0.0 0.0 0.0 16.28999089631971 0.0 0.0 0.0 34.51007289658418" Properties=species:S:1:pos:R:3:initial_magmoms:R:1 pbc="T T T"
Si      -0.17308125      -1.98003321      -1.22272708       0.00000000
Si      -1.84702536       1.19930238      -0.86406369       0.00000000
Si       2.12682240       0.95316048      -0.53311190       0.00000000
Si      -0.95583204       0.13962159       2.21216593       0.00000000
Si      -3.02705667       0.76908348       1.13407065       0.00000000
Si      -0.88886385       3.31822154      -0.62518483       0.00000000
Si       1.17320580       2.91258751      -1.54543095       0.00000000
Si       0.29278017      -3.49633899       0.51012818       0.00000000
Si       1.13627637      -1.59694128      -3.15511969       0.00000000
Si       1.72221138      -2.55285477       2.18904417       0.00000000
