10
Lattice="16.28999089631971 0.0 0.0 0.0 16.28999089631971 0.0 0.0 0.0 34.51007289658418" Properties=species:S:1:pos:R:3:initial_magmoms:R:1 pbc="T T T"
Si      -1.41812595       1.30170132       1.29195432       0.00000000
Si       1.33719723       1.36796904      -1.34744655       0.00000000
Si      -1.37124333      -1.35374787      -1.34879244       0.00000000
Si       1.29604869      -1.38468258       1.46378007       0.00000000
Si       0.53418168       1.89960948       2.53801022       0.00000000
Si      -2.11286187      -0.38415078       2.72167293       0.00000000
Si      -0.57529764      -2.24697744       2.63525966       0.00000000
Si       2.69700498       0.00801468      -2.70617790       0.00000000
Si      -0.01830996      -2.70773520      -2.70603986       0.00000000
Si       2.69887833      -2.71766396       0.03792659       0.00000000
