10
Lattice="16.28999089631971 0.0 0.0 0.0 16.28999089631971 0.0 0.0 0.0 34.51007289658418" Properties=species:S:1:pos:R:3:initial_magmoms:R:1 pbc="T T T"
Si       0.43942275      -1.25560062       1.89902135       0.00000000
Si       0.92124837      -0.38077875      -2.11798789       0.00000000
Si      -0.04331511       2.27952486       0.68730300       0.00000000
Si      -2.21530968      -0.89243136      -0.13075874       0.00000000
Si      -2.67056631       0.45284571       1.80563704       0.00000000
Si      -0.99904941      -0.02402775       3.38933968       0.00000000
Si      -2.84473899       0.18769338      -2.12858249       0.00000000
Si      -2.35232487       2.59750566       0.88121520       0.00000000
Si      -1.62725697      -3.24736263      -0.44138408       0.00000000
Si      -0.96876630      -0.15859944      -3.53811269       0.00000000
