10
Lattice="16.28999089631971 0.0 0.0 0.0 16.28999089631971 0.0 0.0 0.0 34.51007289658418" Properties=species:S:1:pos:R:3:initial_magmoms:R:1 pbc="T T T"
Si       2.05623783       0.75166947       0.77627001       0.00000000
Si      -0.89148654       2.28553587       0.16533785       0.00000000
Si      -0.76564629      -1.96431336       1.28639820       0.00000000
Si       2.33329815      -0.15157845      -1.39990189       0.00000000
Si       0.34507107      -0.95553882      -2.73737502       0.00000000
Si       1.37640726       3.14023959       0.64447597       0.00000000
Si      -0.53380701      -3.10982616      -1.83372826       0.00000000
Si       1.16504451      -2.41852743       2.76988353       0.00000000
Si       2.86324443      -0.77253696       2.49625301       0.00000000
Si      -2.48300325      -1.34925183       2.80567049       0.00000000
