10
Lattice="16.28999089631971 0.0 0.0 0.0 16.28999089631971 0.0 0.0 0.0 34.51007289658418" Properties=species:S:1:pos:R:3:initial_magmoms:R:1 pbc="T T T"
Si       1.83757716       1.33055091       0.51140506       0.00000000
Si       0.64505142      -1.43322678      -1.78386118       0.00000000
Si      -0.50989329      -0.63654804       2.23953243       0.00000000
Si      -1.99560645       1.10361492      -0.84011368       0.00000000
Si      -3.47240898      -0.42533190       0.23815415       0.00000000
Si      -2.72212416       0.08363286       2.41035739       0.00000000
Si      -1.62768051       0.98873784      -3.17893165       0.00000000
Si      -1.09128339      -1.35666378      -3.29526517       0.00000000
Si       1.49889177       2.29917060       2.54926051       0.00000000
Si       2.10461913       3.05655786      -0.93694900       0.00000000
