10
Lattice="16.28999089631971 0.0 0.0 0.0 16.28999089631971 0.0 0.0 0.0 34.51007289658418" Properties=species:S:1:pos:R:3:initial_magmoms:R:1 pbc="T T T"
Si      -1.81213218      -0.99613350       1.13013650       0.00000000
Si       1.42434873      -1.30142439      -1.43303158       0.00000000
Si      -1.28658420       1.44155097      -1.45190860       0.00000000
Si       1.90584855       0.42849216       1.63757289       0.00000000
Si       0.57054096       2.28814227       1.46923266       0.00000000
Si      -3.30955785       0.89366940       1.30506816       0.00000000
Si       2.63112822       2.66488110       0.09341882       0.00000000
Si      -2.68227882       2.75289597      -0.06229072       0.00000000
Si       0.06419889      -2.63756277      -2.82261495       0.00000000
Si      -2.73408102      -2.74318713      -0.07761320       0.00000000
