10
Lattice="16.28999089631971 0.0 0.0 0.0 16.28999089631971 0.0 0.0 0.0 34.51007289658418" Properties=species:S:1:pos:R:3:initial_magmoms:R:1 pbc="T T T"
Si      -1.56195036       1.66501134      -0.75107765       0.00000000
Si       0.40032675      -1.06429086      -2.19021751       0.00000000
Si       2.02878918       1.15162155       0.84667060       0.00000000
Si      -1.06148898      -1.40188482       1.76115353       0.00000000
Si      -3.58246422       1.33385778       0.35317628       0.00000000
Si      -2.32870437       0.98782560      -2.91027058       0.00000000
Si       2.07146898       0.86470578       3.19132077       0.00000000
Si       2.67691941      -1.76767677      -2.32560060       0.00000000
Si      -2.96243424      -2.52646497       0.88718545       0.00000000
Si       3.12065901      -2.06742906       1.40839137       0.00000000
