10
Lattice="16.28999089631971 0.0 0.0 0.0 16.28999089631971 0.0 0.0 0.0 34.51007289658418" Properties=species:S:1:pos:R:3:initial_magmoms:R:1 pbc="T T T"
Si      -1.35743039      -1.35677781       1.35769605       0.00000000
Si       1.35744213       1.35816246       1.35766154       0.00000000
Si       1.36040203      -1.35786924      -1.35741997       0.00000000
Si      -1.35808199       1.35628911      -1.36180275       0.00000000
Si       2.71431117      -2.71399545       0.00210512       0.00000000
Si      -0.00038347      -2.71384884       2.71542660       0.00000000
Si      -2.71546253      -2.71412577       0.00034510       0.00000000
Si       2.71489761       0.00167787       2.71501248       0.00000000
Si      -2.71523447       0.00120546       2.71518503       0.00000000
Si       2.70523764      -0.00092853      -2.72606606       0.00000000
