10
Lattice="16.28999089631971 0.0 0.0 0.0 16.28999089631971 0.0 0.0 0.0 34.51007289658418" Properties=species:S:1:pos:R:3:initial_magmoms:R:1 pbc="T T T"
Si      -1.35760860      -1.35671754       1.35724742       0.00000000
Si       1.36094805      -1.35289753      -1.35814468       0.00000000
Si       1.35803214       1.35734796       1.35735095       0.00000000
Si      -1.35887922       1.35651717      -1.35759252       0.00000000
Si       2.70381420      -0.00215028      -2.72263921       0.00000000
Si      -2.71350675       2.71469592      -0.00058667       0.00000000
Si       2.71546253       2.71412577      -0.00034510       0.00000000
Si       0.00055386      -2.71489753       2.71477091       0.00000000
Si      -2.71502172       0.00013032       2.71466738       0.00000000
Si      -2.71375110      -2.71631433       0.00072471       0.00000000
