10
Lattice="16.28999089631971 0.0 0.0 0.0 16.28999089631971 0.0 0.0 0.0 34.51007289658418" Properties=species:S:1:pos:R:3:initial_magmoms:R:1 pbc="T T T"
Si       0.75381975      -0.42179860      -2.26375852       0.00000000
Si      -0.56884680       2.36265273      -0.09286666       0.00000000
Si      -0.13748760      -1.16953240       2.17451542       0.00000000
Si       2.19162402      -0.97313039       1.45425528       0.00000000
Si       2.51537052      -1.23984330      -0.98119094       0.00000000
Si      -1.44003600       2.72194497       2.15594899       0.00000000
Si      -2.05913745       2.79433773      -2.16840713       0.00000000
Si      -0.65963097      -1.88075285      -3.61144664       0.00000000
Si      -2.72021823      -2.25749168      -2.23563279       0.00000000
Si       1.18379430       3.91460103      -0.91903826       0.00000000
