10
Lattice="16.28999089631971 0.0 0.0 0.0 16.28999089631971 0.0 0.0 0.0 34.51007289658418" Properties=species:S:1:pos:R:3:initial_magmoms:R:1 pbc="T T T"
Si      -1.35832536      -1.35703845       1.35686780       0.00000000
Si      -1.35791811       1.35755973      -1.35762703       0.00000000
Si       1.35780408      -1.35798327      -1.35748899       0.00000000
Si       1.35812988       1.35873261       1.35724742       0.00000000
Si      -2.71469592       2.71425609       0.00027608       0.00000000
Si      -2.71373481      -0.00063531      -2.71542660       0.00000000
Si      -0.00159642       2.71489140      -2.71501248       0.00000000
Si       2.71485100      -2.71505430       0.00024157       0.00000000
Si       2.71495251       2.71508688       0.00013804       0.00000000
Si      -0.00022806      -2.71533123      -2.71483993       0.00000000
