10
Lattice="16.28999089631971 0.0 0.0 0.0 16.28999089631971 0.0 0.0 0.0 34.51007289658418" Properties=species:S:1:pos:R:3:initial_magmoms:R:1 pbc="T T T"
Si       1.35166275      -1.35689184       1.36024979       0.00000000
Si       1.35593073       1.35609363      -1.35697133       0.00000000
Si      -1.35842310      -1.35835794      -1.35676427       0.00000000
Si      -1.35858600       1.35599589       1.36049136       0.00000000
Si       2.70488934       0.01549179       2.71784231       0.00000000
Si       2.71272483       2.71440270       0.00155295       0.00000000
Si      -2.70867676       0.00539199       2.71887761       0.00000000
Si      -0.00092853       2.71358820      -2.71439130       0.00000000
Si       2.71397916      -0.00122175      -2.71432228       0.00000000
Si      -2.71587857      -0.00187335      -2.71411522       0.00000000
