10
Lattice="16.28999089631971 0.0 0.0 0.0 16.28999089631971 0.0 0.0 0.0 34.51007289658418" Properties=species:S:1:pos:R:3:initial_magmoms:R:1 pbc="T T T"
Si      -1.35941679      -1.34358291      -1.37108596       0.00000000
Si       1.35635213       1.36852290      -1.36901536       0.00000000
Si      -1.41874497       1.39686750       1.30134107       0.00000000
Si       1.32945948      -1.34118828       1.48731595       0.00000000
Si       2.26300421       0.51828264       2.81792158       0.00000000
Si       2.69858252      -2.69206748      -0.01021499       0.00000000
Si      -2.71529865      -2.71341227       0.01232010       0.00000000
Si      -0.00094482      -2.70342650      -2.73219851       0.00000000
Si       2.71430563       0.01270620      -2.73109419       0.00000000
Si      -2.71717200       0.01226637      -2.73178439       0.00000000
