10
Lattice="16.28999089631971 0.0 0.0 0.0 16.28999089631971 0.0 0.0 0.0 34.51007289658418" Properties=species:S:1:pos:R:3:initial_magmoms:R:1 pbc="T T T"
Si      -1.31751891       1.34817669      -1.32318595       0.00000000
Si       1.09858131       1.66742811       1.23352873       0.00000000
Si       1.41874497      -1.39686750      -1.30134107       0.00000000
Si      -1.48349772      -0.90894942       1.68916548       0.00000000
Si       1.75943403       0.21131388       2.93853435       0.00000000
Si      -3.46125033       0.50699367       1.21106266       0.00000000
Si      -2.58237225       2.66128101       0.30741590       0.00000000
Si      -2.65823478      -0.02464677      -2.67439410       0.00000000
Si       0.05719419       2.68630245      -2.67225448       0.00000000
Si       0.05932818      -2.74045041      -2.67242703       0.00000000
