10
Lattice="16.28999089631971 0.0 0.0 0.0 16.28999089631971 0.0 0.0 0.0 34.51007289658418" Properties=species:S:1:pos:R:3:initial_magmoms:R:1 pbc="T T T"
Si      -1.73633481       0.07656300      -1.51140400       0.00000000
Si      -0.64505142       1.43322678       1.78386118       0.00000000
Si       0.78216435      -2.21833962       0.45991600       0.00000000
Si       1.35060390       1.26501624      -1.57138254       0.00000000
Si       2.72609892      -1.51897734       1.53359399       0.00000000
Si      -2.27273193       2.42196462      -1.39507048       0.00000000
Si      -3.15289692      -1.65240873      -0.78327556       0.00000000
Si      -2.64065787       2.53684170       0.94374749       0.00000000
Si      -0.96312996      -0.60010731      -3.60944505       0.00000000
Si       1.19252574       2.76377769       2.29526623       0.00000000
