10
Lattice="16.28999089631971 0.0 0.0 0.0 16.28999089631971 0.0 0.0 0.0 34.51007289658418" Properties=species:S:1:pos:R:3:initial_magmoms:R:1 pbc="T T T"
Si       1.35697981       1.35707103      -1.35773056       0.00000000
Si      -1.35830127      -1.35845568      -1.35731644       0.00000000
Si      -1.35795350       1.35581670       1.36207883       0.00000000
Si       1.35660514      -1.36008468       1.35980116       0.00000000
Si      -0.01572311      -2.70477368       2.72087920       0.00000000
Si       2.71354585      -0.00086337      -2.71487444       0.00000000
Si      -0.00047567       2.71355562      -2.71508150       0.00000000
Si      -0.00124293      -2.71494190      -2.71466738       0.00000000
Si      -2.71502239       2.71533123      -0.00031059       0.00000000
Si      -2.71534819      -0.00138465      -2.71504699       0.00000000
