10
Lattice="16.28999089631971 0.0 0.0 0.0 16.28999089631971 0.0 0.0 0.0 34.51007289658418" Properties=species:S:1:pos:R:3:initial_magmoms:R:1 pbc="T T T"
Si       1.35009077       1.35060390      -1.35838625       0.00000000
Si       1.33782439      -1.27498572       1.45884513       0.00000000
Si      -1.27663541       1.43086473       1.37049929       0.00000000
Si      -1.36467964      -1.36500426      -1.35583250       0.00000000
Si      -0.45802756      -2.21524452       2.83110443       0.00000000
Si       2.70825322       2.71104696       0.02319078       0.00000000
Si       2.70867676      -0.00539199      -2.71887761       0.00000000
Si      -0.00645899       2.70974376      -2.71842898       0.00000000
Si       2.71467149      -2.71658556       0.02657277       0.00000000
Si      -0.00672614      -2.72082096      -2.71791133       0.00000000
