10
Lattice="16.28999089631971 0.0 0.0 0.0 16.28999089631971 0.0 0.0 0.0 34.51007289658418" Properties=species:S:1:pos:R:3:initial_magmoms:R:1 pbc="T T T"
Si      -2.05337079       1.27127160       0.16858180       0.00000000
Si       1.54904283       0.99031797      -1.57693866       0.00000000
Si      -1.01621907      -1.82799864      -1.27190396       0.00000000
Si       1.55914231      -0.45128187       1.96417641       0.00000000
Si      -2.79513594      -0.44123094       2.06756864       0.00000000
Si       0.16136874       2.28530781      -2.92780171       0.00000000
Si       2.84766697       2.43113589      -0.16561393       0.00000000
Si      -2.53487061      -0.45864495      -2.90202267       0.00000000
Si       3.69145151       0.69595767       1.17820906       0.00000000
Si      -1.32809112       3.50766054      -1.37557227       0.00000000
