10
Lattice="16.28999089631971 0.0 0.0 0.0 16.28999089631971 0.0 0.0 0.0 34.51007289658418" Properties=species:S:1:pos:R:3:initial_magmoms:R:1 pbc="T T T"
Si       0.44140689      -1.69779267       1.55871733       0.00000000
Si       1.64935665       1.73433114       0.12154454       0.00000000
Si      -2.17750059       1.05023259       0.59674851       0.00000000
Si       0.44658418      -1.23261543      -2.17071931       0.00000000
Si       0.41060574       3.63394944      -0.44476607       0.00000000
Si      -1.61710830      -2.59491555       2.36107698       0.00000000
Si       1.66055440      -0.87693957       3.41370381       0.00000000
Si       2.57889338      -0.08537589      -2.95668666       0.00000000
Si      -1.91850588       3.43754742       0.27549407       0.00000000
Si       1.46652421      -3.62204892       0.73189004       0.00000000
