10
Lattice="16.28999089631971 0.0 0.0 0.0 16.28999089631971 0.0 0.0 0.0 34.51007289658418" Properties=species:S:1:pos:R:3:initial_magmoms:R:1 pbc="T T T"
Si      -1.71064548      -1.51837461      -0.41567406       0.00000000
Si       0.95319210      -0.33185988       2.11118940       0.00000000
Si       1.64626807      -0.70387461      -1.51640796       0.00000000
Si      -1.11716820       2.00689542      -0.49107861       0.00000000
Si       1.84489530      -2.40940503       1.50457100       0.00000000
Si       3.04969067       1.15443972      -1.53680343       0.00000000
Si       0.42712056      -1.52472771      -3.37139444       0.00000000
Si      -0.78366303      -0.58451778       3.59936810       0.00000000
Si      -2.80518687       1.45179738      -2.03813153       0.00000000
Si       3.13695620      -2.14319385      -0.40090374       0.00000000
