10
Lattice="16.28999089631971 0.0 0.0 0.0 16.28999089631971 0.0 0.0 0.0 34.51007289658418" Properties=species:S:1:pos:R:3:initial_magmoms:R:1 pbc="T T T"
Si       1.35291708      -1.35104536      -1.36366629       0.00000000
Si      -1.35390914       1.35612621      -1.35952508       0.00000000
Si      -1.35763629      -1.35633961       1.35597054       0.00000000
Si       1.35715248       1.35773892       1.35576348       0.00000000
Si       0.00026064      -2.71470981       2.71314894       0.00000000
Si       2.71510317       0.00042354       2.71276933       0.00000000
Si      -2.71469464       0.00014661       2.71332149       0.00000000
Si      -2.71431117       2.71399545      -0.00210512       0.00000000
Si       0.00058644       2.71567332       2.71290737       0.00000000
Si      -2.71427957      -2.71515923      -0.00134589       0.00000000
