10
Lattice="16.28999089631971 0.0 0.0 0.0 16.28999089631971 0.0 0.0 0.0 34.51007289658418" Properties=species:S:1:pos:R:3:initial_magmoms:R:1 pbc="T T T"
Si      -2.25183349      -0.52476606      -0.34164991       0.00000000
Si       0.82256355       0.33366807      -2.30047725       0.00000000
Si      -0.36531954       2.45584782       0.21482532       0.00000000
Si       0.14242347      -2.49212565      -0.21910458       0.00000000
Si       0.10305054      -0.47017827       2.47830776       0.00000000
Si      -2.12579287      -2.75331951       0.33816439       0.00000000
Si       3.50845875       0.29563092       0.29875387       0.00000000
Si       2.87902944       1.37575566      -1.69906988       0.00000000
Si       1.07318520       1.42190523       3.40559394       0.00000000
Si      -2.70447395      -0.48435057      -2.69044130       0.00000000
