10
Lattice="16.28999089631971 0.0 0.0 0.0 16.28999089631971 0.0 0.0 0.0 34.51007289658418" Properties=species:S:1:pos:R:3:initial_magmoms:R:1 pbc="T T T"
Si      -1.35009077      -1.35060390       1.35838625       0.00000000
Si       1.35858600      -1.35599589      -1.36049136       0.00000000
Si      -1.35654975       1.35913986      -1.36004273       0.00000000
Si       1.35816246       1.36044306       1.38157703       0.00000000
Si      -2.62672617       0.08026083       2.72888554       0.00000000
Si       2.71024875      -2.71288773      -0.00024157       0.00000000
Si       2.71415835       2.71609686      -0.00176001       0.00000000
Si      -2.71477041      -2.71560816       0.00255375       0.00000000
Si       0.00016290      -2.71435383      -2.71725564       0.00000000
Si      -2.71501667       0.00026064      -2.71694505       0.00000000
