10
Lattice="16.28999089631971 0.0 0.0 0.0 16.28999089631971 0.0 0.0 0.0 34.51007289658418" Properties=species:S:1:pos:R:3:initial_magmoms:R:1 pbc="T T T"
Si       1.35795069      -1.35685111      -1.36100902       0.00000000
Si      -1.35660514       1.36008468      -1.35980116       0.00000000
Si      -1.37232824      -1.34468900       1.36107804       0.00000000
Si       1.36479249       1.36432008       1.38468294       0.00000000
Si      -0.00633681      -2.62897322       2.72912711       0.00000000
Si       2.71248048      -2.71204784      -0.00314042       0.00000000
Si       2.71046052       2.71862181      -0.00051765       0.00000000
Si      -2.71455864       2.71590138       0.00227767       0.00000000
Si       0.00004887      -2.71322742      -2.71729015       0.00000000
Si      -2.72129936      -2.70944144      -0.00179452       0.00000000
