10
Lattice="16.28999089631971 0.0 0.0 0.0 16.28999089631971 0.0 0.0 0.0 34.51007289658418" Properties=species:S:1:pos:R:3:initial_magmoms:R:1 pbc="T T T"
Si      -1.34680173      -1.33838640       1.37819504       0.00000000
Si      -1.35287790       1.35500220      -1.35731644       0.00000000
Si       1.36236277      -1.35793440      -1.35759252       0.00000000
Si       1.36518257       1.34385984       1.37363971       0.00000000
Si       0.09218635      -2.63681343       2.73133576       0.00000000
Si      -2.71091004      -0.00172674      -2.71449483       0.00000000
Si      -2.71126842       2.71529865       0.00293336       0.00000000
Si       0.00342013       2.71311579      -2.71483993       0.00000000
Si       0.00389585      -2.71681362      -2.71449483       0.00000000
Si       2.71935235       2.71204065       0.00403768       0.00000000
