10
Lattice="16.28999089631971 0.0 0.0 0.0 16.28999089631971 0.0 0.0 0.0 34.51007289658418" Properties=species:S:1:pos:R:3:initial_magmoms:R:1 pbc="T T T"
Si       1.27663541      -1.43086473      -1.37049929       0.00000000
Si      -1.43898808       1.29842703      -1.35314071       0.00000000
Si      -1.76456002      -1.10009628       1.17755337       0.00000000
Si       1.49310344       1.05472863       1.63470856       0.00000000
Si       2.58790710       2.60869689       0.12330456       0.00000000
Si      -2.63526052       2.60276733       0.29381892       0.00000000
Si       2.61445980      -2.70585045       0.08834584       0.00000000
Si       2.62672617      -0.08026083      -2.72888554       0.00000000
Si      -0.09218635       2.63681343      -2.73133576       0.00000000
Si      -3.45728650       0.69771699       1.58891366       0.00000000
