10
Lattice="16.28999089631971 0.0 0.0 0.0 16.28999089631971 0.0 0.0 0.0 34.51007289658418" Properties=species:S:1:pos:R:3:initial_magmoms:R:1 pbc="T T T"
Si       2.16230854      -0.65725263       0.54670888       0.00000000
Si      -1.02511732       1.92425625       0.82682730       0.00000000
Si      -1.01944286      -1.79326836       1.28167031       0.00000000
Si      -0.59506555      -0.06722883      -2.53656080       0.00000000
Si       1.82362315      -2.98121661       0.16433706       0.00000000
Si      -1.78489597      -2.32580475      -2.00617519       0.00000000
Si      -0.43070271      -3.57625773      -0.23232194       0.00000000
Si      -3.08363251       1.02713337       1.62918694       0.00000000
Si      -3.27184717      -1.29415905       1.36425296       0.00000000
Si       2.39950723      -0.74810196       2.86423412       0.00000000
