10
Lattice="16.28999089631971 0.0 0.0 0.0 16.28999089631971 0.0 0.0 0.0 34.24959146834617" Properties=species:S:1:pos:R:3:initial_magmoms:R:1 pbc="T T T"
Si       1.35078472      -1.29432099       1.40708703       0.00000000
Si      -0.94020341      -1.76104578      -1.23609550       0.00000000
Si       1.00188550       1.63062085      -1.45423645       0.00000000
Si      -1.37727293       1.41267694       1.39913769       0.00000000
Si       2.62337581      -2.68962465      -0.01687821       0.00000000
Si      -2.72292793      -2.68227786       0.03828764       0.00000000
Si       2.60526133       2.79737581      -0.15712694       0.00000000
Si      -0.02265939      -2.64850869       2.76334421       0.00000000
Si      -0.68444064       3.51623722      -1.37446911       0.00000000
Si      -2.64046795       2.81014717      -0.00963784       0.00000000
