10
Lattice="16.28999089631971 0.0 0.0 0.0 16.28999089631971 0.0 0.0 0.0 34.24959146834617" Properties=species:S:1:pos:R:3:initial_magmoms:R:1 pbc="T T T"
Si       2.03493051       0.82784151      -0.65156459       0.00000000
Si       0.65138823      -1.71307269       1.45447821       0.00000000
Si      -0.95917149       1.90996733       0.98053210       0.00000000
Si      -0.73950084      -0.66119481      -2.14577235       0.00000000
Si      -2.74950113      -1.55600451      -1.35625033       0.00000000
Si       2.49033375      -2.60701902       0.07284892       0.00000000
Si       1.48051665       2.35825184      -2.33393971       0.00000000
Si       3.16006452      -0.97653663      -1.59942257       0.00000000
Si      -0.33399387       1.29818268      -3.46260138       0.00000000
Si      -1.16173764      -3.26761110       1.49807797       0.00000000
