10
Lattice="16.28999089631971 0.0 0.0 0.0 16.28999089631971 0.0 0.0 0.0 34.24959146834617" Properties=species:S:1:pos:R:3:initial_magmoms:R:1 pbc="T T T"
Si      -1.35327546       1.35920502       1.36351125       0.00000000
Si       1.36357074      -1.35791811       1.36272351       0.00000000
Si      -1.37246508      -1.34100909      -1.37526229       0.00000000
Si       1.37958381       1.37464794      -1.37685147       0.00000000
Si       0.07123617      -2.58864716      -2.72598816       0.00000000
Si      -2.70873378       2.70852201       0.00544569       0.00000000
Si      -2.71070487      -2.71629397       0.00215773       0.00000000
Si      -2.71044423      -0.00092853       2.71945333       0.00000000
Si       2.71764441       2.71448415       0.00746642       0.00000000
Si       0.00420282       2.71451673       2.71989858       0.00000000
