10
Lattice="16.28999089631971 0.0 0.0 0.0 16.28999089631971 0.0 0.0 0.0 34.24959146834617" Properties=species:S:1:pos:R:3:initial_magmoms:R:1 pbc="T T T"
Si      -1.44370125       1.24763807       1.35072587       0.00000000
Si      -1.10912094      -1.73988996      -1.19264645       0.00000000
Si       1.31755149      -1.47882642       1.34364647       0.00000000
Si       1.17286371       1.55472086      -1.43782061       0.00000000
Si      -0.07123617       2.58864716       2.72598816       0.00000000
Si       2.64606615      -0.12871869       2.72865963       0.00000000
Si      -2.86953237       2.60464394      -0.19325000       0.00000000
Si      -2.78194104      -0.12764681       2.72814588       0.00000000
Si       0.71084673      -3.56124228      -1.49532571       0.00000000
Si       2.81582424       2.74408634      -0.15390063       0.00000000
