10
Lattice="16.28999089631971 0.0 0.0 0.0 16.28999089631971 0.0 0.0 0.0 34.24959146834617" Properties=species:S:1:pos:R:3:initial_magmoms:R:1 pbc="T T T"
Si       1.35490446      -1.35153406      -1.35977804       0.00000000
Si      -1.35760860      -1.35005167       1.36960768       0.00000000
Si      -1.35980775       1.36176255      -1.35878480       0.00000000
Si       1.36925595       1.35957969       1.38073880       0.00000000
Si       2.70840798      -2.70861341       0.00452095       0.00000000
Si      -0.00259011      -2.71028139      -2.71619962       0.00000000
Si      -2.71503801      -2.71304011      -0.00250022       0.00000000
Si       2.71235016       0.00526167      -2.71609687       0.00000000
Si       2.71342530       2.71831230      -0.00212348       0.00000000
Si      -2.71699281       0.00430056      -2.71633662       0.00000000
