10
Lattice="16.28999089631971 0.0 0.0 0.0 16.28999089631971 0.0 0.0 0.0 34.24959146834617" Properties=species:S:1:pos:R:3:initial_magmoms:R:1 pbc="T T T"
Si       1.89270252       0.31004757       1.41183745       0.00000000
Si       0.05535342       1.76810031      -1.61942434       0.00000000
Si       0.21846519      -2.39488575      -0.45339635       0.00000000
Si      -1.98710307       0.14921640       1.42403031       0.00000000
Si       0.06085944      -3.03767449       1.90660732       0.00000000
Si      -3.63762216       0.51834780      -0.22303346       0.00000000
Si      -1.17869553       0.81572175      -3.41543967       0.00000000
Si       1.96962390      -1.72753821       2.70592474       0.00000000
Si      -2.99934738      -0.36693225      -2.35161251       0.00000000
Si       3.80760831       0.60629751       0.03585934       0.00000000
