10
Lattice="16.28999089631971 0.0 0.0 0.0 16.28999089631971 0.0 0.0 0.0 34.24959146834617" Properties=species:S:1:pos:R:3:initial_magmoms:R:1 pbc="T T T"
Si       0.43103340       2.07360297      -0.92658897       0.00000000
Si      -2.13835572       0.41857155       0.83538225       0.00000000
Si       1.17706653      -0.58775949       1.95222780       0.00000000
Si       0.60084036      -1.07251731      -2.03600235       0.00000000
Si      -3.41910810      -1.38554595       0.03349612       0.00000000
Si       2.81105127       2.26929474      -0.97138746       0.00000000
Si      -0.25335837      -2.23163226       3.00341685       0.00000000
Si      -0.34016778       1.86518871      -3.28231143       0.00000000
Si       2.96890137      -0.73195857      -2.26876271       0.00000000
Si       3.40307874      -1.23859386       1.30840362       0.00000000
