10
Lattice="16.28999089631971 0.0 0.0 0.0 16.28999089631971 0.0 0.0 0.0 34.24959146834617" Properties=species:S:1:pos:R:3:initial_magmoms:R:1 pbc="T T T"
Si      -0.43103340      -2.07360297       0.92658897       0.00000000
Si      -0.16465932       2.10154032       1.05896371       0.00000000
Si       2.38001787       0.19569177      -0.04479849       0.00000000
Si      -0.77120118      -0.20841426      -2.35572247       0.00000000
Si       2.06200449       1.74562011       1.68371086       0.00000000
Si       0.16980696      -3.14612028      -1.10941339       0.00000000
Si      -2.56938912      -1.65503142       1.76197122       0.00000000
Si       2.88689751       0.63719964      -2.36010642       0.00000000
Si       0.00832419       3.72646782      -0.68334823       0.00000000
Si       1.01871144       0.48624021      -3.78434222       0.00000000
