10
Lattice="16.28999089631971 0.0 0.0 0.0 16.28999089631971 0.0 0.0 0.0 34.24959146834617" Properties=species:S:1:pos:R:3:initial_magmoms:R:1 pbc="T T T"
Si      -1.32872643       1.40229207      -1.32974798       0.00000000
Si      -1.36122498      -1.34741106       1.36992962       0.00000000
Si       1.35218403       1.37308410       1.36722391       0.00000000
Si       1.54974915      -1.11788496      -1.46079727       0.00000000
Si      -2.71164969      -2.69348634      -0.01113797       0.00000000
Si       2.72709261      -2.68128513      -0.01236753       0.00000000
Si       0.24123861       2.47896333      -2.90796460       0.00000000
Si       2.19686940       0.83626344      -3.02359128       0.00000000
Si      -0.00576666      -2.69672805       2.72799518       0.00000000
Si       2.71085148       0.01576872       2.72751569       0.00000000
