10
Lattice="16.28999089631971 0.0 0.0 0.0 16.28999089631971 0.0 0.0 0.0 34.24959146834617" Properties=species:S:1:pos:R:3:initial_magmoms:R:1 pbc="T T T"
Si       1.35754344      -1.35747828       1.36601147       0.00000000
Si      -1.35881406       1.35890802       1.36607997       0.00000000
Si      -1.36886499      -1.36990755      -1.37585138       0.00000000
Si       1.38460113       1.36405944      -1.37990996       0.00000000
Si      -2.71420722      -2.71287144       0.00825416       0.00000000
Si       2.71311579       2.71416717       0.00510319       0.00000000
Si       2.71342530      -2.71397916       0.00534294       0.00000000
Si      -2.71489140       2.71523905       0.00458945       0.00000000
Si      -0.00050499      -2.71410948       2.72239880       0.00000000
Si       2.71474479       0.00127062       2.72202205       0.00000000
