10
Lattice="16.28999089631971 0.0 0.0 0.0 16.28999089631971 0.0 0.0 0.0 34.24959146834617" Properties=species:S:1:pos:R:3:initial_magmoms:R:1 pbc="T T T"
Si       1.20102912      -0.12776247      -2.02665221       0.00000000
Si      -0.50375196      -1.92204081       1.28124368       0.00000000
Si      -2.12664321       0.88469361      -0.55203522       0.00000000
Si       0.55760670       1.93377843       1.43324346       0.00000000
Si       0.57322881       3.46011722      -0.33232397       0.00000000
Si       3.33337383       0.53856369      -1.13253187       0.00000000
Si      -1.41765354       1.99729802       2.68866293       0.00000000
Si       0.26189433      -1.33749045       3.42318008       0.00000000
Si       3.48807996      -0.61095645       1.05440851       0.00000000
Si      -3.23216406       0.93722886       1.56000126       0.00000000
