10
Lattice="16.28999089631971 0.0 0.0 0.0 16.28999089631971 0.0 0.0 0.0 34.24959146834617" Properties=species:S:1:pos:R:3:initial_magmoms:R:1 pbc="T T T"
Si       2.12664321      -0.88469361       0.55203522       0.00000000
Si      -1.10552085       0.05253525       2.11203649       0.00000000
Si       0.36623178       2.20507046      -0.87994100       0.00000000
Si      -1.98992124      -1.77764625      -0.34458533       0.00000000
Si       0.70898967       1.11260441       3.24069816       0.00000000
Si       2.68424991       1.04908482       1.98527868       0.00000000
Si       0.27968301       1.41327872      -3.32755517       0.00000000
Si       1.62289125      -2.80673442       1.83327891       0.00000000
Si       2.69987202       2.57542361       0.21971125       0.00000000
Si       3.32767233      -1.01245608      -1.47461698       0.00000000
