10
Lattice="16.28999089631971 0.0 0.0 0.0 16.28999089631971 0.0 0.0 0.0 34.24959146834617" Properties=species:S:1:pos:R:3:initial_magmoms:R:1 pbc="T T T"
Si       1.35022923       1.35842310       1.39277754       0.00000000
Si      -1.36814823      -1.35423494       1.39476402       0.00000000
Si      -1.19839014       1.51857009      -1.48779623       0.00000000
Si       1.39559688      -1.45478008      -1.57710552       0.00000000
Si      -2.69666289      -2.70434267       0.00975086       0.00000000
Si       2.70710478      -2.70233525       0.01942638       0.00000000
Si       2.70236439       2.73059496       0.01703918       0.00000000
Si      -2.70586674       2.73777885       0.01524108       0.00000000
Si      -0.00819387      -2.70773168       2.75539830       0.00000000
Si       2.70785412       0.00542457       2.75580929       0.00000000
