10
Lattice="16.28999089631971 0.0 0.0 0.0 16.28999089631971 0.0 0.0 0.0 34.24959146834617" Properties=species:S:1:pos:R:3:initial_magmoms:R:1 pbc="T T T"
Si       2.11616874      -1.02169414       0.61162955       0.00000000
Si      -1.87778088      -1.31150464       0.84750661       0.00000000
Si      -0.43207596       2.13789960       1.14088878       0.00000000
Si       0.04541652       0.51621381      -2.41750876       0.00000000
Si       3.04069140       1.25711559      -1.21705991       0.00000000
Si      -0.86625333       2.64453489      -2.43627755       0.00000000
Si       0.10140525       3.67689735      -0.56785854       0.00000000
Si       1.48541994      -2.54090510       2.46569797       0.00000000
Si       2.87065638      -2.41666127      -1.18870124       0.00000000
Si      -3.62615400      -1.50252281      -0.83935521       0.00000000
