10
Lattice="16.28999089631971 0.0 0.0 0.0 16.28999089631971 0.0 0.0 0.0 34.24959146834617" Properties=species:S:1:pos:R:3:initial_magmoms:R:1 pbc="T T T"
Si      -1.19277009      -0.60308512      -1.92013592       0.00000000
Si      -1.30626252      -1.04226093       1.64192633       0.00000000
Si       2.04674076      -1.09593648       0.34352359       0.00000000
Si      -0.04281012       2.38294681       0.07719862       0.00000000
Si      -1.30333032       1.36777030      -3.13044866       0.00000000
Si       1.21704219      -3.39272874       0.69906880       0.00000000
Si       3.17500245       0.35499331       1.97541479       0.00000000
Si      -1.65599253       3.05249839      -1.51033933       0.00000000
Si      -3.48124305      -1.29534237       0.75030622       0.00000000
Si      -0.23359860      -2.51305245      -2.90066802       0.00000000
