10
Lattice="16.28999089631971 0.0 0.0 0.0 16.28999089631971 0.0 0.0 0.0 34.24959146834617" Properties=species:S:1:pos:R:3:initial_magmoms:R:1 pbc="T T T"
Si      -0.44776323      -1.04375569       2.11196799       0.00000000
Si       0.48444831       2.23572105       0.72225579       0.00000000
Si       2.04838605      -1.19498716      -0.38866458       0.00000000
Si      -1.57833810      -0.22365844      -1.87544018       0.00000000
Si      -2.68333767      -2.13010388      -1.08451392       0.00000000
Si       3.57894558       0.41172975       0.23231511       0.00000000
Si       2.61938313       2.56611483      -0.18830436       0.00000000
Si      -2.70848943      -0.48610500       2.60475139       0.00000000
Si      -0.53730936      -3.37446440       1.65018049       0.00000000
Si      -1.07849574      -3.81444101      -0.62063719       0.00000000
