10
Lattice="16.28999089631971 0.0 0.0 0.0 16.28999089631971 0.0 0.0 0.0 34.24959146834617" Properties=species:S:1:pos:R:3:initial_magmoms:R:1 pbc="T T T"
Si       1.91490579       0.29624994      -1.37597811       0.00000000
Si      -1.89270252      -0.31004757      -1.41183745       0.00000000
Si       0.07692138      -2.03758578       1.29408729       0.00000000
Si       0.05852997       1.94567760       1.52242944       0.00000000
Si      -0.67895091      -0.90793944       3.39228693       0.00000000
Si       1.96884198      -2.96944709      -0.33605718       0.00000000
Si      -1.67423733      -2.70493332      -1.86523379       0.00000000
Si      -1.76049288       1.42806285       2.96670127       0.00000000
Si       3.53921427      -1.14520329      -0.40236443       0.00000000
Si      -1.83734910       1.45805274      -3.03126179       0.00000000
