10
Lattice="16.28999089631971 0.0 0.0 0.0 16.28999089631971 0.0 0.0 0.0 34.24959146834617" Properties=species:S:1:pos:R:3:initial_magmoms:R:1 pbc="T T T"
Si       1.06205913      -1.89957594       0.93580211       0.00000000
Si       1.57037229       1.82424380      -0.06630725       0.00000000
Si      -1.38235311      -0.29313692      -2.02196001       0.00000000
Si      -1.89192060       0.93186130       1.63014447       0.00000000
Si      -0.05393619       3.26569702      -1.03992093       0.00000000
Si      -1.96884198       2.96944709       0.33605718       0.00000000
Si       3.26311506       1.28805845      -1.63171995       0.00000000
Si      -1.47189924      -2.62384563      -2.48374751       0.00000000
Si      -3.80068506      -0.37827498       0.83082705       0.00000000
Si      -3.64307931       0.26451376      -1.52917661       0.00000000
