10
Lattice="16.28999089631971 0.0 0.0 0.0 16.28999089631971 0.0 0.0 0.0 34.24959146834617" Properties=species:S:1:pos:R:3:initial_magmoms:R:1 pbc="T T T"
Si      -1.32976899       1.28951640       1.41038869       0.00000000
Si       1.12818024       1.66500090      -1.19061819       0.00000000
Si       1.40615280      -1.41631776       1.39248299       0.00000000
Si      -1.43490465      -1.16537031      -1.76921642       0.00000000
Si       0.62551971      -0.97834482      -2.81061008       0.00000000
Si      -2.49460173      -2.62834263      -0.11235242       0.00000000
Si      -0.58080366       3.35139057      -1.39894388       0.00000000
Si      -2.61527805       2.60099172      -0.16807996       0.00000000
Si       0.05046642       2.64736935       2.76794736       0.00000000
Si      -2.66401773      -0.06929766       2.77500278       0.00000000
