10
Lattice="16.28999089631971 0.0 0.0 0.0 16.28999089631971 0.0 0.0 0.0 34.24959146834617" Properties=species:S:1:pos:R:3:initial_magmoms:R:1 pbc="T T T"
Si       1.27902564       1.27335672      -1.69028678       0.00000000
Si      -1.31885469      -1.38386808      -1.63915211       0.00000000
Si      -1.10081304       1.76375088       1.45999240       0.00000000
Si       0.65562363      -1.30592043       2.24423998       0.00000000
Si      -2.55761145       2.54110968      -0.44072399       0.00000000
Si      -1.43466030      -1.48382352       3.32772642       0.00000000
Si       2.59748937      -2.92627207      -0.28019606       0.00000000
Si      -3.20614893      -2.25103365      -0.36715583       0.00000000
Si       1.17610542       2.65116492       2.66208523       0.00000000
Si       2.43118476       3.06107019      -0.60269040       0.00000000
