10
Lattice="16.28999089631971 0.0 0.0 0.0 16.28999089631971 0.0 0.0 0.0 34.24959146834617" Properties=species:S:1:pos:R:3:initial_magmoms:R:1 pbc="T T T"
Si      -1.30787523       1.39518963       1.30751313       0.00000000
Si       1.30047957       1.39893633      -1.45776618       0.00000000
Si      -1.46614887      -1.27135305      -1.45410147       0.00000000
Si       1.45679841      -0.77735880       1.90071639       0.00000000
Si       0.56031084       1.54614906       2.73174894       0.00000000
Si       2.55761145      -2.54110968       0.44072399       0.00000000
Si      -2.54291787      -2.82818835       0.06555375       0.00000000
Si       2.59525764       0.05427828      -2.85679427       0.00000000
Si      -0.11148876      -2.64267783      -2.84148469       0.00000000
Si       3.07819098       2.37907305      -0.05188816       0.00000000
