10
Lattice="16.28999089631971 0.0 0.0 0.0 16.28999089631971 0.0 0.0 0.0 34.24959146834617" Properties=species:S:1:pos:R:3:initial_magmoms:R:1 pbc="T T T"
Si       0.53348121       1.53899775      -1.70874732       0.00000000
Si       1.68902865       0.76549968       1.48167240       0.00000000
Si      -2.22601221       0.65083437       0.64382418       0.00000000
Si       0.43207596      -2.13789960      -1.14088878       0.00000000
Si      -0.43417737       0.50663529      -3.57716633       0.00000000
Si      -1.44570492      -3.44940424      -0.29338216       0.00000000
Si       3.74907834       0.30059937       0.45654731       0.00000000
Si      -3.40307874       1.23859386      -1.30840362       0.00000000
Si       2.81453733       1.38834783      -2.24691145       0.00000000
Si       1.57377690       3.17021319       1.64459780       0.00000000
