10
Lattice="16.28999089631971 0.0 0.0 0.0 16.28999089631971 0.0 0.0 0.0 34.24959146834617" Properties=species:S:1:pos:R:3:initial_magmoms:R:1 pbc="T T T"
Si      -1.81902285      -0.51761475       1.44427183       0.00000000
Si      -0.05852997      -1.94567760      -1.52242944       0.00000000
Si       1.96517673      -0.20127924       1.49691348       0.00000000
Si      -0.69173856       2.37653181      -0.63622077       0.00000000
Si      -0.73748088      -2.85361704       1.86985749       0.00000000
Si      -1.13222016       3.07250577       1.64559104       0.00000000
Si       0.90547965      -1.66425156       3.15377748       0.00000000
Si       1.85637582      -1.64942766      -2.89840755       0.00000000
Si      -1.77934041       1.11835737       3.20838506       0.00000000
Si       0.01839141      -3.98326338      -0.22834215       0.00000000
