10
Lattice="16.28999089631971 0.0 0.0 0.0 16.28999089631971 0.0 0.0 0.0 34.24959146834617" Properties=species:S:1:pos:R:3:initial_magmoms:R:1 pbc="T T T"
Si       1.28550906      -1.31147532       1.57846865       0.00000000
Si      -1.91702349      -0.49257702      -1.45245890       0.00000000
Si       2.03447439       0.75039885      -1.23086392       0.00000000
Si      -1.39201308       1.41393942       1.53790684       0.00000000
Si      -2.56414374      -2.44672542       0.11033512       0.00000000
Si       2.61527805      -2.60099172       0.16807996       0.00000000
Si       2.78501985       2.69555517       0.03474281       0.00000000
Si      -2.80080486       2.80780956       0.01033996       0.00000000
Si       2.66574447       0.04637763       2.93602732       0.00000000
Si      -0.04873968      -2.67028938       2.94308274       0.00000000
