10
Lattice="16.28999089631971 0.0 0.0 0.0 16.28999089631971 0.0 0.0 0.0 34.24959146834617" Properties=species:S:1:pos:R:3:initial_magmoms:R:1 pbc="T T T"
Si      -1.60337583      -1.16675496      -1.29710951       0.00000000
Si      -1.26086229       1.34644995       1.54361625       0.00000000
Si       1.42583112      -1.35700587       1.54397587       0.00000000
Si       0.82459980       1.14311817      -2.56835231       0.00000000
Si      -3.28970197       0.71886141      -1.21734217       0.00000000
Si       2.96085411       1.28607921      -1.67015627       0.00000000
Si      -2.58167504       2.70119151       0.09635100       0.00000000
Si      -2.60526133      -2.79737581       0.15712694       0.00000000
Si       2.86953237      -2.60464394       0.19325000       0.00000000
Si      -2.62748741      -0.01876608       2.92290287       0.00000000
