10
Lattice="16.28999089631971 0.0 0.0 0.0 16.28999089631971 0.0 0.0 0.0 34.24959146834617" Properties=species:S:1:pos:R:3:initial_magmoms:R:1 pbc="T T T"
Si       1.34664543       1.34159553       1.37193665       0.00000000
Si       1.35422028      -1.35531171      -1.35628458       0.00000000
Si      -1.35874890       1.35711990      -1.35649008       0.00000000
Si      -1.34395758      -1.36200690       1.36868294       0.00000000
Si      -2.61614142       0.03116277       2.75705940       0.00000000
Si       2.71358820       0.00112401      -2.71445289       0.00000000
Si      -0.00159642      -2.71376739      -2.71438439       0.00000000
Si       2.71373481       2.71608057       0.00438395       0.00000000
Si      -2.71749780      -2.71249677       0.00472645       0.00000000
Si       2.71450044      -2.71625976       0.00424695       0.00000000
