10
Lattice="16.28999089631971 0.0 0.0 0.0 16.28999089631971 0.0 0.0 0.0 34.24959146834617" Properties=species:S:1:pos:R:3:initial_magmoms:R:1 pbc="T T T"
Si      -1.35821133      -1.35557235      -1.35786006       0.00000000
Si       1.35874890      -1.35711990       1.35649008       0.00000000
Si       1.35700587       1.35930276      -1.35803131       0.00000000
Si      -1.35953082       1.36177884       1.36210701       0.00000000
Si       2.71296918      -2.71243161       0.00020550       0.00000000
Si      -2.71524978      -2.71275741       0.00003425       0.00000000
Si      -0.00048870      -2.71357191      -2.71544613       0.00000000
Si       2.71497285       0.00205254      -2.71520638       0.00000000
Si      -2.71565703       0.00159642      -2.71548038       0.00000000
Si       2.71479366       2.71640637      -0.00030825       0.00000000
