10
Lattice="16.28999089631971 0.0 0.0 0.0 16.28999089631971 0.0 0.0 0.0 34.24959146834617" Properties=species:S:1:pos:R:3:initial_magmoms:R:1 pbc="T T T"
Si       0.19754883       0.04380381       2.35007128       0.00000000
Si       1.47722607       1.43151633      -1.17013795       0.00000000
Si       0.83450412      -2.12965686      -0.61371877       0.00000000
Si      -2.13242616       0.80620839      -0.81918219       0.00000000
Si       0.39451122       0.94934862      -3.22049089       0.00000000
Si      -0.02303406       2.42206236       2.65968776       0.00000000
Si      -1.55354472       2.13006411      -2.68331999       0.00000000
Si       3.62002896       0.47917035      -1.32278846       0.00000000
Si       2.97730701      -1.78833249      -1.88424233       0.00000000
Si      -3.11932323       2.38760901       0.58282562       0.00000000
