10
Lattice="16.28999089631971 0.0 0.0 0.0 16.28999089631971 0.0 0.0 0.0 34.24959146834617" Properties=species:S:1:pos:R:3:initial_magmoms:R:1 pbc="T T T"
Si      -1.35542563       1.35844076      -1.35679832       0.00000000
Si      -1.35630529      -1.35783270       1.35690107       0.00000000
Si       1.35878552       1.35712616       1.35659283       0.00000000
Si       1.35873828      -1.35722997      -1.36231251       0.00000000
Si      -2.71173103       2.71495142       0.00017125       0.00000000
Si      -2.71319713      -0.00058332       2.71400764       0.00000000
Si      -2.71225231      -2.71594629       0.00078774       0.00000000
Si       0.00178675       2.71459304       2.71393914       0.00000000
Si       0.00180757      -2.71534356       2.71390490       0.00000000
Si       0.00412474       2.70395567      -2.72651903       0.00000000
