10
Lattice="16.28999089631971 0.0 0.0 0.0 16.28999089631971 0.0 0.0 0.0 34.24959146834617" Properties=species:S:1:pos:R:3:initial_magmoms:R:1 pbc="T T T"
Si      -1.35630540       1.35651065       1.35696957       0.00000000
Si       1.35542563      -1.35844076       1.35679832       0.00000000
Si       1.35955037       1.34551490      -1.36972070       0.00000000
Si      -1.35705474      -1.35124916      -1.37941334       0.00000000
Si      -2.71393029       2.70950918      -0.00606218       0.00000000
Si       2.71459722       2.71144769      -0.00308246       0.00000000
Si      -0.00026064       2.71325588       2.71359665       0.00000000
Si       2.71421115      -0.00131460       2.71339115       0.00000000
Si      -2.71524978      -0.00159642       2.71311715       0.00000000
Si       2.71416391      -2.71567073      -0.00551419       0.00000000
