10
Lattice="16.28999089631971 0.0 0.0 0.0 16.28999089631971 0.0 0.0 0.0 34.24959146834617" Properties=species:S:1:pos:R:3:initial_magmoms:R:1 pbc="T T T"
Si       1.78964776      -1.09152888       0.97176420       0.00000000
Si      -1.09924920      -1.17900276      -1.70761709       0.00000000
Si       1.35899325       1.43264197      -1.61610213       0.00000000
Si      -1.26802989      -0.62746311       2.39689050       0.00000000
Si      -1.94186574       1.62035164       2.52443605       0.00000000
Si       3.26815586       0.84155932       1.24171963       0.00000000
Si      -2.10465171      -2.91417253      -0.55518619       0.00000000
Si      -2.74385502      -2.24620108       1.58359925       0.00000000
Si       2.98618573      -2.45847607      -0.46360273       0.00000000
Si       2.64504870       2.86850773      -0.11494169       0.00000000
