10
Lattice="16.28999089631971 0.0 0.0 0.0 16.28999089631971 0.0 0.0 0.0 34.24959146834617" Properties=species:S:1:pos:R:3:initial_magmoms:R:1 pbc="T T T"
Si       2.21538203       0.30540492      -0.62080844       0.00000000
Si      -1.10560230      -1.86109992      -0.88699642       0.00000000
Si      -1.01401992       1.71378945      -1.27045506       0.00000000
Si      -0.52935984       0.07633494       2.30510154       0.00000000
Si      -2.95617888      -1.49426541       0.49250940       0.00000000
Si      -1.05549426       2.30247747       2.45723831       0.00000000
Si       2.56804424      -1.37932317      -2.24091777       0.00000000
Si       0.39913499      -3.65222519      -0.62844611       0.00000000
Si      -1.64779866      -1.29982797      -3.10558344       0.00000000
Si       2.59117604       2.61990441      -1.14797845       0.00000000
