10
Lattice="16.28999089631971 0.0 0.0 0.0 16.28999089631971 0.0 0.0 0.0 34.24959146834617" Properties=species:S:1:pos:R:3:initial_magmoms:R:1 pbc="T T T"
Si      -1.53055953      -1.60671691      -0.62097969       0.00000000
Si       1.85057658      -0.36683451      -1.37950582       0.00000000
Si       0.61875936       0.12570993       2.26989294       0.00000000
Si      -0.95956245       2.15438508      -0.42061947       0.00000000
Si       2.95617888       1.49426541      -0.49250940       0.00000000
Si       2.42681904       1.57060035       1.81259214       0.00000000
Si      -3.57894558      -0.41172975      -0.23231511       0.00000000
Si      -3.09449727       1.82399130       0.48994068       0.00000000
Si      -0.44963658      -3.62533040       0.34571557       0.00000000
Si       1.30838022       0.19443744      -3.59809284       0.00000000
