10
Lattice="16.28999089631971 0.0 0.0 0.0 16.28999089631971 0.0 0.0 0.0 34.24959146834617" Properties=species:S:1:pos:R:3:initial_magmoms:R:1 pbc="T T T"
Si      -0.27372087      -1.12495482       1.97712727       0.00000000
Si       0.01420488       2.41267932       0.48456349       0.00000000
Si       2.40933987      -0.82013634       0.26427000       0.00000000
Si      -2.27691846      -0.88741404      -1.20209283       0.00000000
Si       1.30238550       0.30677328       3.08054698       0.00000000
Si      -3.17340603       1.43609382      -0.37106028       0.00000000
Si       1.25507934       0.40990527      -3.26477563       0.00000000
Si      -1.59931962       2.96844525      -1.07697901       0.00000000
Si       2.98858199      -0.57977739      -1.96257119       0.00000000
Si      -2.55477699      -0.97430490       2.51529140       0.00000000
