10
Lattice="16.28999089631971 0.0 0.0 0.0 16.28999089631971 0.0 0.0 0.0 34.24959146834617" Properties=species:S:1:pos:R:3:initial_magmoms:R:1 pbc="T T T"
Si      -1.37445246       1.41827256       1.25083003       0.00000000
Si       1.56581109      -1.20616047       1.33272085       0.00000000
Si      -1.57610637      -1.43172810      -1.10341970       0.00000000
Si       1.50249186       1.94370651      -0.62416490       0.00000000
Si      -0.64156536      -2.51947656       1.60003906       0.00000000
Si       1.10695437      -1.12690962      -2.81627698       0.00000000
Si      -1.30238550      -0.30677328      -3.08054698       0.00000000
Si       0.31983786       2.01073986       2.71082243       0.00000000
Si       2.29580576       2.11299219       1.58335950       0.00000000
Si       2.43248863       0.75860901      -2.42062548       0.00000000
