10
Lattice="16.28999089631971 0.0 0.0 0.0 16.28999089631971 0.0 0.0 0.0 34.24959146834617" Properties=species:S:1:pos:R:3:initial_magmoms:R:1 pbc="T T T"
Si      -2.13493482      -0.33039378       0.91056015       0.00000000
Si       0.72990603       1.73540628       1.44752554       0.00000000
Si      -0.39759003       0.78038874      -2.21046987       0.00000000
Si       0.95956245      -2.15438508       0.42061947       0.00000000
Si       2.90172141       1.05366978      -1.34234499       0.00000000
Si       1.66245966       0.31548843      -3.23559496       0.00000000
Si      -2.61938313      -2.56611483       0.18830436       0.00000000
Si       0.13338252       3.68773020       0.19224306       0.00000000
Si      -1.73872944      -0.05103657       3.28231143       0.00000000
Si       1.57832181      -2.02867515       2.69051241       0.00000000
