10
Lattice="16.28999089631971 0.0 0.0 0.0 16.28999089631971 0.0 0.0 0.0 34.24959146834617" Properties=species:S:1:pos:R:3:initial_magmoms:R:1 pbc="T T T"
Si       2.13034104      -0.09304848       0.93782284       0.00000000
Si      -0.72990603      -1.73540628      -1.44752554       0.00000000
Si      -1.61127648       0.40518117       1.70528811       0.00000000
Si      -0.59652351       1.95232392      -1.25528248       0.00000000
Si       1.79980065       1.44958194      -1.98181947       0.00000000
Si      -2.73932640       1.61099955       0.01524108       0.00000000
Si      -2.46863547      -1.78644285       1.83478589       0.00000000
Si      -2.86484085      -2.06580006      -0.53696540       0.00000000
Si       2.17181538      -0.68173650      -2.78987053       0.00000000
Si       1.83695814       1.21727025       2.86080147       0.00000000
