10
Lattice="16.28999089631971 0.0 0.0 0.0 16.28999089631971 0.0 0.0 0.0 34.24959146834617" Properties=species:S:1:pos:R:3:initial_magmoms:R:1 pbc="T T T"
Si      -1.12818024      -1.66500090       1.19061819       0.00000000
Si       1.72845045       1.10615616       1.14393254       0.00000000
Si      -1.70898390       1.68638967      -0.20832569       0.00000000
Si      -0.50266053      -2.64334572      -1.61999189       0.00000000
Si      -1.47461967       1.29948588      -2.72782980       0.00000000
Si      -0.66318219      -0.97637373      -3.25335582       0.00000000
Si       0.29696670       2.34431019       2.59324249       0.00000000
Si      -2.45794923      -0.37548450       2.60100688       0.00000000
Si      -2.56308489      -2.83037121      -0.57859823       0.00000000
Si      -0.95843844       3.63154599       1.05728103       0.00000000
