10
Lattice="16.28999089631971 0.0 0.0 0.0 16.28999089631971 0.0 0.0 0.0 34.24959146834617" Properties=species:S:1:pos:R:3:initial_magmoms:R:1 pbc="T T T"
Si      -1.35690813       1.35668007       1.35703807       0.00000000
Si       1.35741042       1.35827649      -1.35703807       0.00000000
Si       1.35820556      -1.35822762       1.35710657       0.00000000
Si      -1.35666378      -1.35899325      -1.35827106       0.00000000
Si      -0.00096111       2.71523349      -2.71236366       0.00000000
Si       0.00123804       2.71409319       2.71441864       0.00000000
Si      -2.71427238       2.71472850      -0.00020550       0.00000000
Si       2.71470636      -0.00053757       2.71465839       0.00000000
Si       2.71520484       2.71445157      -0.00006850       0.00000000
Si       0.00078192      -2.71640637       2.71404189       0.00000000
