10
Lattice="16.28999089631971 0.0 0.0 0.0 16.28999089631971 0.0 0.0 0.0 34.24959146834617" Properties=species:S:1:pos:R:3:initial_magmoms:R:1 pbc="T T T"
Si       0.85004478       1.77176556      -1.33391958       0.00000000
Si      -0.94379373       0.69942744       2.07771838       0.00000000
Si      -1.77771141      -0.98013672      -1.40587802       0.00000000
Si       1.91060523      -1.85911254      -0.11007825       0.00000000
Si       2.22094602       0.44214318      -2.81035180       0.00000000
Si      -0.48293334      -2.32479477      -2.80490611       0.00000000
Si       0.66973077       0.14366151       3.63926087       0.00000000
Si      -2.51788014      -0.83292399       2.78363710       0.00000000
Si      -3.07819098      -2.37907305       0.05188816       0.00000000
Si       0.75844611      -3.64682601      -1.19767463       0.00000000
