10
Lattice="16.28999089631971 0.0 0.0 0.0 16.28999089631971 0.0 0.0 0.0 34.24959146834617" Properties=species:S:1:pos:R:3:initial_magmoms:R:1 pbc="T T T"
Si      -2.07734967       0.96457977       0.56155662       0.00000000
Si       0.48265641      -1.60880040       1.68532059       0.00000000
Si       0.83662182       2.17689786       0.51816236       0.00000000
Si       0.56892825      -0.92116692      -2.16149293       0.00000000
Si       3.35960073      -1.08336645      -0.18967434       0.00000000
Si       1.85710887      -3.02707296       0.43449056       0.00000000
Si       0.54874494       2.15783856       2.86576767       0.00000000
Si      -3.44357568      -0.78933195       1.02670058       0.00000000
Si      -1.74078198       1.93665294       2.66681168       0.00000000
Si      -1.04459625      -0.36540099      -3.72303542       0.00000000
