10
Lattice="16.28999089631971 0.0 0.0 0.0 16.28999089631971 0.0 0.0 0.0 34.24959146834617" Properties=species:S:1:pos:R:3:initial_magmoms:R:1 pbc="T T T"
Si      -1.61352450       0.55576593      -1.56154250       0.00000000
Si      -0.56892825       0.92116692       2.16149293       0.00000000
Si       1.82246004       1.31224095      -0.90925866       0.00000000
Si      -0.01420488      -2.41267932      -0.48456349       0.00000000
Si       2.79067248      -0.16219953       1.97181858       0.00000000
Si      -3.18761091      -0.97658550      -0.85562377       0.00000000
Si       1.28818062      -2.10590604       2.59598349       0.00000000
Si      -0.66973077      -0.14366151      -3.63926087       0.00000000
Si       3.17524095      -0.36940833      -1.91198451       0.00000000
Si       3.22195090       1.89636777       0.84377341       0.00000000
