10
Lattice="16.28999089631971 0.0 0.0 0.0 16.28999089631971 0.0 0.0 0.0 34.24959146834617" Properties=species:S:1:pos:R:3:initial_magmoms:R:1 pbc="T T T"
Si       1.69429032       0.59246730       1.45999240       0.00000000
Si       1.37445246      -1.41827256      -1.25083003       0.00000000
Si      -1.44241434      -1.06813530       1.53725952       0.00000000
Si      -0.48265641       1.60880040      -1.68532059       0.00000000
Si       2.87694432       0.52543395      -1.87499493       0.00000000
Si       1.60013412      -1.06824933       3.05051007       0.00000000
Si      -0.20165391      -2.85000066      -2.35424973       0.00000000
Si       3.67025822       0.69471963       0.33252947       0.00000000
Si      -2.56000608       2.57338017      -1.12376397       0.00000000
Si      -3.53895363      -0.03311757       1.46670532       0.00000000
