10
Lattice="16.28999089631971 0.0 0.0 0.0 16.28999089631971 0.0 0.0 0.0 34.24959146834617" Properties=species:S:1:pos:R:3:initial_magmoms:R:1 pbc="T T T"
Si       0.35220609      -1.90575081      -1.21781340       0.00000000
Si      -1.27599570       1.26842085      -1.49735873       0.00000000
Si      -1.49555232      -0.79622262       1.66069512       0.00000000
Si       1.90707912       1.25173989       0.81490099       0.00000000
Si      -0.87651603       3.32724879      -0.55638492       0.00000000
Si       1.48910148       3.10951665      -0.61950696       0.00000000
Si      -0.18832869      -0.20834910       3.54795141       0.00000000
Si       0.25804989      -3.56646744       0.37270426       0.00000000
Si       1.37601630       1.55387052       3.09777453       0.00000000
Si       2.32817399      -1.80349848      -2.34527634       0.00000000
