10
Lattice="16.28999089631971 0.0 0.0 0.0 16.28999089631971 0.0 0.0 0.0 34.24959146834617" Properties=species:S:1:pos:R:3:initial_magmoms:R:1 pbc="T T T"
Si       1.34199731      -1.33923348       1.37079957       0.00000000
Si      -1.48757022      -1.02809448      -1.53444561       0.00000000
Si       1.78272451       0.92123208      -1.27438314       0.00000000
Si      -1.37095011       1.39819074       1.35115741       0.00000000
Si       2.65229612      -2.65898412      -0.09561464       0.00000000
Si      -2.68245801       2.64574591      -0.24537449       0.00000000
Si      -2.61210150      -2.74600530      -0.17704994       0.00000000
Si      -3.33655038       0.64593108      -1.72292122       0.00000000
Si       2.72292793       2.68227786      -0.03828764       0.00000000
Si      -0.01588275      -2.68102449       2.73190649       0.00000000
