10
Lattice="16.28999089631971 0.0 0.0 0.0 16.28999089631971 0.0 0.0 0.0 34.24959146834617" Properties=species:S:1:pos:R:3:initial_magmoms:R:1 pbc="T T T"
Si       1.34454143       0.16394256       1.86598729       0.00000000
Si      -2.17593675      -0.61084242       0.55330246       0.00000000
Si       0.77832058      -1.81253943      -1.28257942       0.00000000
Si      -0.03126051       2.28045339      -0.70218552       0.00000000
Si       0.60733015       1.77047865      -2.87617955       0.00000000
Si      -3.46040325       1.07377164      -0.59806670       0.00000000
Si       3.35454173       1.05875226       1.07646526       0.00000000
Si      -0.97990866      -0.11085345      -3.59336640       0.00000000
Si       2.92907951      -1.06852626      -2.07946511       0.00000000
Si      -2.46381363      -0.62990172       2.90090777       0.00000000
