10
Lattice="16.28999089631971 0.0 0.0 0.0 16.28999089631971 0.0 0.0 0.0 34.24959146834617" Properties=species:S:1:pos:R:3:initial_magmoms:R:1 pbc="T T T"
Si       1.54982897       1.31274594      -1.35457210       0.00000000
Si      -1.28605545      -1.43586576      -1.50116043       0.00000000
Si       0.62310716      -2.02694841       1.35666133       0.00000000
Si      -1.07785066       2.12915187       1.09465180       0.00000000
Si       2.48880086       1.03759155       2.52443605       0.00000000
Si      -2.51995779      -0.02454903      -2.89196862       0.00000000
Si      -2.64504870      -2.86850773       0.11494169       0.00000000
Si       0.22125241       2.65136040      -2.90066802       0.00000000
Si       0.22509359      -2.74776462      -2.88775592       0.00000000
Si      -0.05222248      -1.82488725       3.64792603       0.00000000
