10
Lattice="16.28999089631971 0.0 0.0 0.0 16.28999089631971 0.0 0.0 0.0 34.24959146834617" Properties=species:S:1:pos:R:3:initial_magmoms:R:1 pbc="T T T"
Si      -0.47407158       2.01658797      -1.06920434       0.00000000
Si      -1.86393438      -1.41630147      -0.53425968       0.00000000
Si      -0.15416856       0.74559330       2.30232732       0.00000000
Si       2.32632603      -0.43903179      -0.69297237       0.00000000
Si       0.16513173       1.34861652      -3.20798978       0.00000000
Si      -2.50346349       1.14176610       2.15443751       0.00000000
Si      -2.65816962       2.29128624      -0.03250288       0.00000000
Si       1.90063575      -0.35737002      -3.00817755       0.00000000
Si      -2.96647416      -1.12967892       1.75292932       0.00000000
Si      -0.75092013      -3.48131961      -0.78750130       0.00000000
