10
Lattice="16.28999089631971 0.0 0.0 0.0 16.28999089631971 0.0 0.0 0.0 34.24959146834617" Properties=species:S:1:pos:R:3:initial_magmoms:R:1 pbc="T T T"
Si       0.39947967       2.05882794       0.94097380       0.00000000
Si      -2.28952692      -0.22118562      -0.19895599       0.00000000
Si       1.27599570      -1.26842085       1.49735873       0.00000000
Si       0.28787688       0.01905930      -2.34760531       0.00000000
Si       2.76509718       1.84109580       0.87785177       0.00000000
Si       1.62820179      -3.17417166       0.27954532       0.00000000
Si      -2.98520766       1.99989072       0.22984914       0.00000000
Si      -0.54874494      -2.15783856      -2.86576767       0.00000000
Si      -2.62609461      -1.19325879      -2.30421105       0.00000000
Si      -0.21955662      -2.06464347       3.15805385       0.00000000
