10
Lattice="16.28999089631971 0.0 0.0 0.0 16.28999089631971 0.0 0.0 0.0 34.24959146834617" Properties=species:S:1:pos:R:3:initial_magmoms:R:1 pbc="T T T"
Si      -1.32857656       1.33861446      -1.54609592       0.00000000
Si      -1.54982897      -1.31274594       1.35457210       0.00000000
Si       1.37883447      -1.34539110      -1.52331993       0.00000000
Si       0.85843413       1.99207152       1.28525089       0.00000000
Si      -2.62767963       0.81640593       2.44922390       0.00000000
Si       2.67410124       2.77425216      -0.04616848       0.00000000
Si      -2.70727487       2.73116511      -0.26868820       0.00000000
Si      -0.98979669       3.55713327       1.10937914       0.00000000
Si       2.82203073      -2.65833252      -0.09963212       0.00000000
Si      -2.83588442      -2.74861170      -0.14658833       0.00000000
