10
Lattice="16.28999089631971 0.0 0.0 0.0 16.28999089631971 0.0 0.0 0.0 34.24959146834617" Properties=species:S:1:pos:R:3:initial_magmoms:R:1 pbc="T T T"
Si      -2.33513892       0.18031401       0.67023063       0.00000000
Si       0.73013409      -1.93308543       1.29466953       0.00000000
Si       1.34719929       1.67388939      -1.17818660       0.00000000
Si       0.69054939      -0.56431818      -2.30681402       0.00000000
Si      -2.54283642      -2.07138753      -0.46284924       0.00000000
Si      -0.61315560      -1.31642748       3.36831220       0.00000000
Si      -0.84292605      -3.67098408      -0.03784582       0.00000000
Si      -0.13408299       3.36794840      -1.89729143       0.00000000
Si      -3.39719805       2.07988995      -0.26557148       0.00000000
Si       1.93526829      -2.58804117      -2.39702750       0.00000000
