10
Lattice="16.28999089631971 0.0 0.0 0.0 16.28999089631971 0.0 0.0 0.0 34.24959146834617" Properties=species:S:1:pos:R:3:initial_magmoms:R:1 pbc="T T T"
Si      -0.36422811      -1.90052172       1.25528248       0.00000000
Si       2.40424110      -0.00381186      -0.45421834       0.00000000
Si      -0.61512669       2.04271713       1.23188999       0.00000000
Si       0.71733015       3.15467253      -0.38493137       0.00000000
Si      -0.08053776       2.26722591      -2.59375726       0.00000000
Si       1.13440302      -3.32640171      -0.08863799       0.00000000
Si      -0.17568765      -0.98891703       3.48191816       0.00000000
Si       2.90325267       2.26181763       0.16611061       0.00000000
Si      -2.48880086      -1.03759155      -2.52443605       0.00000000
Si      -1.86569370      -3.06453996      -1.16777472       0.00000000
