10
Lattice="16.28999089631971 0.0 0.0 0.0 16.28999089631971 0.0 0.0 0.0 34.24959146834617" Properties=species:S:1:pos:R:3:initial_magmoms:R:1 pbc="T T T"
Si       1.35711990       1.35661491       1.35570234       0.00000000
Si      -1.35860555      -1.35798816       1.35638733       0.00000000
Si      -1.35821948       1.35477414      -1.36008629       0.00000000
Si       1.35685926      -1.35875053      -1.36159327       0.00000000
Si       2.71293660      -2.71508156      -0.00010275       0.00000000
Si       2.71443528      -0.00097740       2.71390490       0.00000000
Si      -0.00162900       2.71498914       2.71376790       0.00000000
Si      -2.71560432      -0.00052128       2.71373365       0.00000000
Si      -0.00050499      -2.71604930       2.71363090       0.00000000
Si      -2.71616921       2.71394658      -0.00195223       0.00000000
