10
Lattice="16.28999089631971 0.0 0.0 0.0 16.28999089631971 0.0 0.0 0.0 34.24959146834617" Properties=species:S:1:pos:R:3:initial_magmoms:R:1 pbc="T T T"
Si       1.35650081       1.35769005       1.35755182       0.00000000
Si      -1.35742364      -1.35817875       1.35693532       0.00000000
Si       1.35774699      -1.35770634      -1.35731207       0.00000000
Si      -1.35820556       1.35822762      -1.35710657       0.00000000
Si       2.71400841      -2.71440270      -0.00003425       0.00000000
Si       0.00048913      -2.71292031       2.71640512       0.00000000
Si       2.71464372       2.71507059       0.00020550       0.00000000
Si      -2.71511369       2.71490769      -0.00006850       0.00000000
Si      -2.71486934      -0.00076563      -2.71537763       0.00000000
Si      -2.71560239      -2.71485882       0.00017125       0.00000000
