10
Lattice="16.28999089631971 0.0 0.0 0.0 16.28999089631971 0.0 0.0 0.0 34.24959146834617" Properties=species:S:1:pos:R:3:initial_magmoms:R:1 pbc="T T T"
Si      -1.35837153       1.35695700      -1.35532559       0.00000000
Si       1.35779442       1.35617508       1.35696957       0.00000000
Si      -1.35741042      -1.35827649       1.35703807       0.00000000
Si       1.35860077      -1.36093176      -1.36262076       0.00000000
Si      -0.00049147       2.69874801      -2.71643252       0.00000000
Si      -2.71321083       2.71303434       0.00092474       0.00000000
Si      -2.69918514       0.00474039      -2.72832056       0.00000000
Si       0.00084905       2.71363707       2.71404189       0.00000000
Si       2.71584610       2.71218726      -0.00099324       0.00000000
Si      -2.71431855      -0.00159642       2.71407614       0.00000000
