10
Lattice="16.28999089631971 0.0 0.0 0.0 16.28999089631971 0.0 0.0 0.0 34.24959146834617" Properties=species:S:1:pos:R:3:initial_magmoms:R:1 pbc="T T T"
Si       1.29658626       1.34956134       1.38135530       0.00000000
Si      -0.92128095      -1.78373871       1.24497335       0.00000000
Si      -1.27425267       1.43733186      -1.40002133       0.00000000
Si       1.45290510      -1.25649657      -1.40985097       0.00000000
Si      -0.40457844       2.53905714       2.33075450       0.00000000
Si      -2.63875913      -2.60970687      -0.13309399       0.00000000
Si       1.42104186       0.00169416       3.44479159       0.00000000
Si       0.92694987      -3.34880046       1.42084510       0.00000000
Si       2.74261698      -2.56661982       0.08942573       0.00000000
Si       0.09632277      -2.62247823      -2.77778042       0.00000000
