10
Lattice="16.28999089631971 0.0 0.0 0.0 16.28999089631971 0.0 0.0 0.0 34.24959146834617" Properties=species:S:1:pos:R:3:initial_magmoms:R:1 pbc="T T T"
Si      -1.35352470       1.35721764      -1.36155902       0.00000000
Si      -1.34832330      -1.35014778       1.37840983       0.00000000
Si       1.36086660      -1.35929136      -1.36053153       0.00000000
Si       1.35524655       1.36497168       1.38827372       0.00000000
Si       0.25391223      -2.57776251       2.72623475       0.00000000
Si      -2.71089659       2.71598283      -0.00167823       0.00000000
Si      -2.71135263      -0.00100998      -2.71815185       0.00000000
Si      -2.70888758      -2.72093348      -0.00349346       0.00000000
Si       0.00262269       2.71450044      -2.71811760       0.00000000
Si       2.71894761       2.71474479       0.00116449       0.00000000
