10
Lattice="16.28999089631971 0.0 0.0 0.0 16.28999089631971 0.0 0.0 0.0 34.45770212530097" Properties=species:S:1:pos:R:3:initial_magmoms:R:1 pbc="T T T"
Si      -0.33811524       2.21811156       0.60959155       0.00000000
Si       0.42093360       0.37651077      -2.33010004       0.00000000
Si       2.22710364      -0.52667199       0.73691283       0.00000000
Si      -1.68560775      -1.58480523       0.65896946       0.00000000
Si       1.68340860       3.16212588      -0.27955549       0.00000000
Si       1.73763801      -1.54996092      -2.77577620       0.00000000
Si      -0.92077596      -3.56068449      -0.42062540       0.00000000
Si      -1.79142922       0.45027189      -3.24502145       0.00000000
Si      -2.45018867       2.85649029      -0.38234288       0.00000000
Si      -0.43269498       1.99034478       3.19505776       0.00000000
