10
Lattice="16.28999089631971 0.0 0.0 0.0 16.28999089631971 0.0 0.0 0.0 34.45770212530097" Properties=species:S:1:pos:R:3:initial_magmoms:R:1 pbc="T T T"
Si       1.28746386       1.95576111      -0.14486026       0.00000000
Si       1.31670441      -1.92647169      -0.44567617       0.00000000
Si      -2.21236282       0.07376112      -0.91492142       0.00000000
Si      -0.42093360      -0.37651077       2.33010004       0.00000000
Si      -2.16119104      -2.23186032      -1.33985404       0.00000000
Si      -0.45348102      -3.40127055      -0.18617507       0.00000000
Si      -0.75904884       1.84160079       2.93969158       0.00000000
Si       0.01418859       3.26975553      -1.66778817       0.00000000
Si       1.80617004      -0.90318276       3.06701286       0.00000000
Si       3.01464369      -1.73415195       1.19382222       0.00000000
