10
Lattice="16.28999089631971 0.0 0.0 0.0 16.28999089631971 0.0 0.0 0.0 34.45770212530097" Properties=species:S:1:pos:R:3:initial_magmoms:R:1 pbc="T T T"
Si       0.76602096       1.66381010      -1.45818185       0.00000000
Si       1.33514469      -0.01435963       1.92632446       0.00000000
Si      -2.31130665       0.33600406       0.44298847       0.00000000
Si       0.33291873      -2.32511310      -0.53068337       0.00000000
Si      -0.86757282      -2.91104811       1.42847930       0.00000000
Si      -2.55912642      -1.38586428       2.05247417       0.00000000
Si       1.05143805      -2.24861526       2.65414045       0.00000000
Si       3.49897797       0.48978980       1.14613273       0.00000000
Si       2.65478130       0.69494606      -2.59518329       0.00000000
Si      -0.76172040      -2.67437070      -2.55752100       0.00000000
