10
Lattice="16.28999089631971 0.0 0.0 0.0 16.28999089631971 0.0 0.0 0.0 34.45770212530097" Properties=species:S:1:pos:R:3:initial_magmoms:R:1 pbc="T T T"
Si      -0.76602096      -1.66381010       1.45818185       0.00000000
Si       1.01729421       1.82187360       1.09389482       0.00000000
Si      -1.88700102       1.13124276      -0.91878068       0.00000000
Si       1.88876034      -0.96886404      -1.13700143       0.00000000
Si       2.27056536       2.32575588      -0.91654093       0.00000000
Si       0.56912373      -1.67816974       3.38450631       0.00000000
Si       3.20373801      -2.03745872       0.48616399       0.00000000
Si      -3.07732761      -1.32780604       1.90117032       0.00000000
Si      -2.98734165       2.41596990       0.76244600       0.00000000
Si       2.73295701      -1.17402030       2.60431458       0.00000000
