10
Lattice="16.28999089631971 0.0 0.0 0.0 16.28999089631971 0.0 0.0 0.0 34.45770212530097" Properties=species:S:1:pos:R:3:initial_magmoms:R:1 pbc="T T T"
Si       0.36383715      -2.23047404      -0.38051662       0.00000000
Si       1.08548415       1.26169308      -1.61648063       0.00000000
Si      -2.25522018       0.64539351      -0.21019210       0.00000000
Si       0.32839011       0.34037955       2.33437279       0.00000000
Si      -0.00710244       3.28305402      -1.08159342       0.00000000
Si       2.54601297      -2.30529075       0.63733001       0.00000000
Si      -1.65768669      -3.17448836       0.50863043       0.00000000
Si       2.67766875      -0.51438933       2.42482431       0.00000000
Si      -2.17622997       2.68943013      -1.40346299       0.00000000
Si       0.48627279       0.19896606      -3.74796635       0.00000000
