10
Lattice="16.28999089631971 0.0 0.0 0.0 16.28999089631971 0.0 0.0 0.0 34.45770212530097" Properties=species:S:1:pos:R:3:initial_magmoms:R:1 pbc="T T T"
Si       0.99385290       1.76989221      -1.16267175       0.00000000
Si      -1.29826413       1.28752902       1.48185431       0.00000000
Si      -2.01512187      -0.78239241      -1.16450317       0.00000000
Si       1.41257106      -1.44875115       1.44772738       0.00000000
Si       2.43574596       0.25440093      -2.24616244       0.00000000
Si      -2.51444295       2.75910246       0.00793561       0.00000000
Si      -2.61286713      -2.74880718       0.08981405       0.00000000
Si      -0.70472169       3.51033210      -1.47103600       0.00000000
Si       0.06410115       2.63041146       2.84928831       0.00000000
Si      -2.65065993      -0.08273691       2.84411965       0.00000000
