10
Lattice="16.28999089631971 0.0 0.0 0.0 16.28999089631971 0.0 0.0 0.0 34.45770212530097" Properties=species:S:1:pos:R:3:initial_magmoms:R:1 pbc="T T T"
Si       1.35319401       1.36347300      -1.38016957       0.00000000
Si      -1.36572102      -1.35244467      -1.38044523       0.00000000
Si      -1.36018242       1.34374581       1.48051046       0.00000000
Si       1.22706054      -1.61575623       1.34795160       0.00000000
Si       2.69148267       2.71669959       0.01385200       0.00000000
Si      -2.70225036      -2.72639214      -0.01747006       0.00000000
Si      -2.72917773       2.70078426      -0.01371417       0.00000000
Si      -0.00524538      -2.71215468      -2.73918210       0.00000000
Si       2.71044423       0.00190593      -2.74111174       0.00000000
Si      -0.00705357       2.71627605      -2.74049150       0.00000000
