10
Lattice="16.28999089631971 0.0 0.0 0.0 16.28999089631971 0.0 0.0 0.0 34.45770212530097" Properties=species:S:1:pos:R:3:initial_magmoms:R:1 pbc="T T T"
Si      -0.83971692      -1.69225407       1.37052141       0.00000000
Si       0.10976202      -0.83311947      -2.20705151       0.00000000
Si      -1.76534730       1.54122948       0.35408754       0.00000000
Si       2.15438508       0.97427232       0.21622220       0.00000000
Si      -2.07397764      -0.35419347      -2.90289074       0.00000000
Si      -1.56214584      -0.46613835       3.25050023       0.00000000
Si      -3.17536083       1.24134687      -1.53891629       0.00000000
Si       1.86955443       0.30644748      -3.27213968       0.00000000
Si       0.89417439      -3.13878978       1.96784601       0.00000000
Si       2.66862780       2.02026951      -1.92384350       0.00000000
