10
Lattice="16.28999089631971 0.0 0.0 0.0 16.28999089631971 0.0 0.0 0.0 34.45770212530097" Properties=species:S:1:pos:R:3:initial_magmoms:R:1 pbc="T T T"
Si       1.36236528       1.34288244       1.36743400       0.00000000
Si       1.29826413      -1.28752902      -1.48185431       0.00000000
Si      -1.35239580      -1.37026593       1.36226534       0.00000000
Si      -1.21617882       1.47157344      -1.47391869       0.00000000
Si      -0.71685774      -2.06992143      -2.64635748       0.00000000
Si      -2.41122951      -0.23319135      -2.56488875       0.00000000
Si       2.29211703       0.48236319      -2.64452605       0.00000000
Si       0.59354244       2.22280308      -2.95289031       0.00000000
Si       2.71204065       2.70659979       0.00527892       0.00000000
Si       0.00555489       2.70101232       2.72200148       0.00000000
