10
Lattice="16.28999089631971 0.0 0.0 0.0 16.28999089631971 0.0 0.0 0.0 34.45770212530097" Properties=species:S:1:pos:R:3:initial_magmoms:R:1 pbc="T T T"
Si      -1.34506530      -0.56145114       1.86495525       0.00000000
Si       1.76534730      -1.54122948      -0.35408754       0.00000000
Si      -1.41001353      -0.29988261      -1.89300384       0.00000000
Si       0.58109688       2.22456240       0.62361584       0.00000000
Si      -0.81407646       3.09563757      -1.06905081       0.00000000
Si       0.92563038      -3.23348355       1.01643387       0.00000000
Si       0.20320146      -2.00736783       2.89641269       0.00000000
Si      -1.17234243       1.78152327      -3.02669733       0.00000000
Si      -0.30863034      -1.89542295      -3.25697828       0.00000000
Si      -3.59347626      -0.97350669      -1.06488142       0.00000000
