10
Lattice="16.28999089631971 0.0 0.0 0.0 16.28999089631971 0.0 0.0 0.0 34.45770212530097" Properties=species:S:1:pos:R:3:initial_magmoms:R:1 pbc="T T T"
Si      -0.51764896       0.40697307       2.21914617       0.00000000
Si      -0.52165141       2.16762885      -0.84952066       0.00000000
Si      -1.96615480      -1.10130988      -0.81602776       0.00000000
Si       2.27339005      -0.80426662      -0.26549674       0.00000000
Si      -2.50504429       1.67006709       2.03648579       0.00000000
Si      -1.11584057      -3.22919018      -1.45101465       0.00000000
Si      -0.61192082      -1.59404264       3.35004859       0.00000000
Si       3.64411210       1.14103305       0.08538623       0.00000000
Si       0.97585897       3.69581004       0.00716721       0.00000000
Si       2.25407011      -1.95084872      -2.41383230       0.00000000
