10
Lattice="16.28999089631971 0.0 0.0 0.0 16.28999089631971 0.0 0.0 0.0 34.45770212530097" Properties=species:S:1:pos:R:3:initial_magmoms:R:1 pbc="T T T"
Si      -1.33894026      -1.37920914       1.34932991       0.00000000
Si      -1.35834165       1.35550719      -1.35908145       0.00000000
Si       1.35674523      -1.35847197      -1.35846121       0.00000000
Si       1.35221661       1.37849238       1.35332701       0.00000000
Si       2.60325603      -0.02987586       2.71058219       0.00000000
Si      -2.71077003       2.71476108      -0.00010337       0.00000000
Si      -2.71207323      -2.71415835      -0.00075807       0.00000000
Si       2.71422351       2.71461855       0.00186072       0.00000000
Si      -2.71409319      -0.00092853      -2.71619880       0.00000000
Si       0.00118917       2.71415282      -2.71616435       0.00000000
