10
Lattice="16.28999089631971 0.0 0.0 0.0 16.28999089631971 0.0 0.0 0.0 34.45770212530097" Properties=species:S:1:pos:R:3:initial_magmoms:R:1 pbc="T T T"
Si      -1.63605357      -1.04876649      -1.26487404       0.00000000
Si       1.07942427       1.73768688      -1.13765613       0.00000000
Si      -0.67899978       1.45551150       1.90275537       0.00000000
Si       1.83246210      -1.69727139       0.07904601       0.00000000
Si       1.43568657      -1.76164947       2.39022876       0.00000000
Si       1.51128846       2.22056225       2.15553722       0.00000000
Si      -0.21071115      -2.28516120      -2.59277125       0.00000000
Si       2.48044572       0.47254032      -2.58877415       0.00000000
Si      -1.00703151      -1.85683194       3.10012674       0.00000000
Si      -2.52859896      -2.84148099      -0.06870870       0.00000000
