10
Lattice="16.28999089631971 0.0 0.0 0.0 16.28999089631971 0.0 0.0 0.0 34.45770212530097" Properties=species:S:1:pos:R:3:initial_magmoms:R:1 pbc="T T T"
Si      -1.09463913      -0.34925760      -2.02683763       0.00000000
Si      -1.20049155      -0.58593501       1.95916266       0.00000000
Si      -0.33291873       2.32511310       0.53068337       0.00000000
Si       1.93611537      -1.47463596       0.32493631       0.00000000
Si       0.71851932       0.07649784       3.18482381       0.00000000
Si       1.00222596       2.31075346       2.45700782       0.00000000
Si      -0.62121915      -2.51370990      -2.84148708       0.00000000
Si       3.81365190      -0.36659016      -0.53702359       0.00000000
Si      -2.64422538       2.66111715       0.97367183       0.00000000
Si       2.41935822      -1.46005641       2.65882670       0.00000000
