10
Lattice="16.28999089631971 0.0 0.0 0.0 16.28999089631971 0.0 0.0 0.0 34.45770212530097" Properties=species:S:1:pos:R:3:initial_magmoms:R:1 pbc="T T T"
Si       1.09463913       0.34925760       2.02683763       0.00000000
Si       0.47341998      -2.16445230      -0.81464945       0.00000000
Si      -2.36297853       0.26583651       0.26780541       0.00000000
Si       0.80145171       1.14789114      -2.01202081       0.00000000
Si      -1.29168297       2.17570447      -2.15643312       0.00000000
Si      -1.66443075      -2.08656981      -2.06901388       0.00000000
Si      -2.70852201       0.11008782      -2.10491883       0.00000000
Si       0.76172040       2.67437070       2.55752100       0.00000000
Si      -2.77029369       2.48584978       1.00626884       0.00000000
Si       2.91613806      -2.06926983      -1.52454742       0.00000000
