10
Lattice="16.28999089631971 0.0 0.0 0.0 16.28999089631971 0.0 0.0 0.0 34.45770212530097" Properties=species:S:1:pos:R:3:initial_magmoms:R:1 pbc="T T T"
Si      -1.35062019      -1.34983827       1.39925226       0.00000000
Si       1.36581876       1.36482507       1.39463492       0.00000000
Si       1.34962650      -1.40608764      -1.54180730       0.00000000
Si      -1.41257106       1.44875115      -1.44772738       0.00000000
Si       2.56904703       0.36167058      -2.55562892       0.00000000
Si      -2.69162928      -2.69553888       0.02425134       0.00000000
Si       2.72352510      -2.69646741       0.01417935       0.00000000
Si      -2.71083519       2.73628017       0.03412693       0.00000000
Si       2.73302217       2.72901483       0.02900306       0.00000000
Si       0.00715131      -2.70635544       2.75578383       0.00000000
