10
Lattice="16.28999089631971 0.0 0.0 0.0 16.28999089631971 0.0 0.0 0.0 34.45770212530097" Properties=species:S:1:pos:R:3:initial_magmoms:R:1 pbc="T T T"
Si      -1.84621086       1.34757396       0.45249880       0.00000000
Si       0.78811020      -1.56227616       1.55500805       0.00000000
Si      -1.54963512      -1.49117031      -0.96757282       0.00000000
Si       1.60985925       1.46264652      -1.24867891       0.00000000
Si       1.62939096      -3.02959791      -0.08945224       0.00000000
Si      -2.37480507       1.69174908      -1.84524544       0.00000000
Si      -2.80290627      -1.99505259       1.04286294       0.00000000
Si      -0.28597095       2.71143792      -2.43026863       0.00000000
Si      -0.07486884      -3.13328376      -1.96257398       0.00000000
Si      -1.04713749       3.06139599       1.80079498       0.00000000
