10
Lattice="16.28999089631971 0.0 0.0 0.0 16.28999089631971 0.0 0.0 0.0 34.45770212530097" Properties=species:S:1:pos:R:3:initial_magmoms:R:1 pbc="T T T"
Si      -0.67111542       0.44800758       2.19295830       0.00000000
Si      -0.86095908       1.45106433      -1.62802396       0.00000000
Si       2.22351984       0.72365067      -0.19899334       0.00000000
Si      -0.02127474      -2.22483933      -0.84114744       0.00000000
Si       0.86587866       2.98489815      -1.61417196       0.00000000
Si      -2.09375370      -2.90683647       0.05785451       0.00000000
Si       3.69621729      -1.01333574       0.34692034       0.00000000
Si       2.85146676       0.76489695      -2.58401898       0.00000000
Si      -2.87078670      -0.43109856       2.66706209       0.00000000
Si       0.33969537      -1.05116112       3.81853577       0.00000000
