10
Lattice="16.28999089631971 0.0 0.0 0.0 16.28999089631971 0.0 0.0 0.0 34.45770212530097" Properties=species:S:1:pos:R:3:initial_magmoms:R:1 pbc="T T T"
Si       1.72683774       1.53383382       0.01385200       0.00000000
Si      -1.78696413       1.45512054       0.26701288       0.00000000
Si       0.86095908      -1.45106433       1.62802396       0.00000000
Si      -0.01541034      -0.52404930      -2.34708769       0.00000000
Si      -3.13999524      -0.46923345       0.75489976       0.00000000
Si      -1.31999499       2.57715945      -1.77712252       0.00000000
Si       3.08447892      -0.72741366       1.42903062       0.00000000
Si       1.01748969       3.06887310      -1.64070440       0.00000000
Si       2.25971622      -0.09040950      -2.83924733       0.00000000
Si       0.83968434      -3.67590366       0.78687653       0.00000000
