10
Lattice="16.28999089631971 0.0 0.0 0.0 16.28999089631971 0.0 0.0 0.0 34.45770212530097" Properties=species:S:1:pos:R:3:initial_magmoms:R:1 pbc="T T T"
Si       1.41366249      -1.25514450      -1.35584242       0.00000000
Si       1.36236528       1.35158130       1.35781340       0.00000000
Si      -1.34967537      -1.36371735       1.36215508       0.00000000
Si      -1.27651698       1.24936155      -1.59386947       0.00000000
Si      -0.41992362      -2.22423660      -2.64980498       0.00000000
Si       0.66218850       2.09269485      -2.70872899       0.00000000
Si       2.51838513       0.44913159      -2.59624562       0.00000000
Si      -2.11849821      -0.48379671      -2.95816923       0.00000000
Si      -2.69557146       2.70449838      -0.03481953       0.00000000
Si      -2.71204065      -2.70659979      -0.00527892       0.00000000
