10
Lattice="16.28999089631971 0.0 0.0 0.0 16.28999089631971 0.0 0.0 0.0 34.45770212530097" Properties=species:S:1:pos:R:3:initial_magmoms:R:1 pbc="T T T"
Si      -1.26844921       1.36498797       1.37951488       0.00000000
Si      -1.25538419      -1.52933778      -1.32436284       0.00000000
Si       1.75911963       1.12506885      -1.18453655       0.00000000
Si       1.44021030      -1.37546244       1.37727512       0.00000000
Si       0.61492632      -1.79831826      -2.91945598       0.00000000
Si       3.45349140      -0.71166123      -1.26600528       0.00000000
Si      -2.61392176      -0.01290168       2.74151489       0.00000000
Si      -2.51794108       2.84785038      -0.09952079       0.00000000
Si       0.10247387       2.70045846       2.74003321       0.00000000
Si       0.10112506      -2.72782566       2.74944017       0.00000000
