10
Lattice="16.28999089631971 0.0 0.0 0.0 16.28999089631971 0.0 0.0 0.0 34.45770212530097" Properties=species:S:1:pos:R:3:initial_magmoms:R:1 pbc="T T T"
Si       0.11520288       0.25428690      -2.31697164       0.00000000
Si       1.52769249       1.35793440       1.17170036       0.00000000
Si      -2.29022739       0.04523733       0.61665538       0.00000000
Si       0.22384089      -2.27222694       0.67802458       0.00000000
Si       2.90639664      -0.72163071       1.36008072       0.00000000
Si      -1.53121113       0.09853821       3.03207274       0.00000000
Si      -1.94898447      -3.20394978       1.19427017       0.00000000
Si      -1.22756553      -1.12757751      -3.60403645       0.00000000
Si      -3.44776221       2.02881266      -0.21698027       0.00000000
Si      -3.52336410      -1.95339906       0.01771127       0.00000000
