10
Lattice="16.28999089631971 0.0 0.0 0.0 16.28999089631971 0.0 0.0 0.0 34.45770212530097" Properties=species:S:1:pos:R:3:initial_magmoms:R:1 pbc="T T T"
Si       1.87753653       1.10804580      -0.86195990       0.00000000
Si       0.48324285       0.01457955       2.33389038       0.00000000
Si      -0.04992885      -2.32215579      -0.65362852       0.00000000
Si      -1.93611537       1.47463596      -0.32493631       0.00000000
Si      -1.21759605       1.55113380       2.85988750       0.00000000
Si       1.11852027       1.05474492      -3.27737725       0.00000000
Si      -3.13660692       0.88870095       1.63422635       0.00000000
Si       3.70617048       0.08058663       0.29082317       0.00000000
Si       2.77081497       0.65037825       2.45287290       0.00000000
Si       1.45976319      -2.19444219      -2.69976247       0.00000000
