10
Lattice="16.28999089631971 0.0 0.0 0.0 16.28999089631971 0.0 0.0 0.0 34.45770212530097" Properties=species:S:1:pos:R:3:initial_magmoms:R:1 pbc="T T T"
Si      -0.22384089       2.27222694      -0.67802458       0.00000000
Si      -2.17282536      -0.93172284       0.51624558       0.00000000
Si       0.54913590      -0.64073457       2.29019799       0.00000000
Si       1.85697855      -1.36948401      -0.88887138       0.00000000
Si       2.70558981      -0.81938700       1.27221353       0.00000000
Si       2.68255575       1.55059623       0.68205614       0.00000000
Si      -2.51406828       2.31746427      -0.06136920       0.00000000
Si      -1.60137216      -3.03534828      -0.41566349       0.00000000
Si       0.07358193       1.34330598       3.50683122       0.00000000
Si      -1.75505202       2.37076515       2.35404815       0.00000000
