10
Lattice="16.28999089631971 0.0 0.0 0.0 16.28999089631971 0.0 0.0 0.0 34.45770212530097" Properties=species:S:1:pos:R:3:initial_magmoms:R:1 pbc="T T T"
Si       1.41902190      -1.19016369       1.38670620       0.00000000
Si       1.39747068       1.36984239      -1.33406958       0.00000000
Si      -1.31820309       1.52863731       1.34624250       0.00000000
Si      -0.90751590      -1.93069080      -1.43321521       0.00000000
Si      -0.49115979       1.67827725      -2.94497882       0.00000000
Si       1.00209564      -3.34497394      -1.21009384       0.00000000
Si       0.04311963      -2.54568391       2.73232502       0.00000000
Si       2.84207787      -2.45156029      -0.01601595       0.00000000
Si      -2.72038113      -2.63257314      -0.02014398       0.00000000
Si      -2.67822261       0.17374914       2.73328983       0.00000000
