10
Lattice="16.28999089631971 0.0 0.0 0.0 16.28999089631971 0.0 0.0 0.0 34.45770212530097" Properties=species:S:1:pos:R:3:initial_magmoms:R:1 pbc="T T T"
Si       1.35473679      -1.35659403       1.36132120       0.00000000
Si       1.37590227       1.35552022      -1.34561882       0.00000000
Si      -1.35980775       1.36117285       1.35966723       0.00000000
Si      -1.36259334      -1.37899607      -1.36883298       0.00000000
Si      -0.04311963       2.54568391      -2.73232502       0.00000000
Si       2.70998226      -2.71159497       0.00527203       0.00000000
Si       2.71086030       2.71703842       0.00740841       0.00000000
Si       2.71172855       0.00205580       2.71819735       0.00000000
Si      -2.71870326      -2.71167642       0.00578890       0.00000000
Si      -0.00311139      -2.71299591       2.71816289       0.00000000
