10
Lattice="16.28999089631971 0.0 0.0 0.0 16.28999089631971 0.0 0.0 0.0 34.45770212530097" Properties=species:S:1:pos:R:3:initial_magmoms:R:1 pbc="T T T"
Si       1.53486728       0.48335199       1.69780085       0.00000000
Si       1.43508125      -0.15845869      -1.84266111       0.00000000
Si      -1.60177941       1.77001764      -0.05968077       0.00000000
Si      -1.14567570      -2.18417527       0.03225243       0.00000000
Si       1.75048335       2.80304799       0.64908010       0.00000000
Si      -3.38199948      -0.97633693       0.09465536       0.00000000
Si      -3.13387020       1.01695212       1.48340491       0.00000000
Si       0.16767297       0.25317266       3.65032079       0.00000000
Si       0.48234690      -1.82758717      -3.16873206       0.00000000
Si       3.54715469      -0.79683742      -0.85072668       0.00000000
