10
Lattice="16.28999089631971 0.0 0.0 0.0 16.28999089631971 0.0 0.0 0.0 34.45770212530097" Properties=species:S:1:pos:R:3:initial_magmoms:R:1 pbc="T T T"
Si       1.29883428       1.22090292      -1.48064829       0.00000000
Si      -1.42443018      -1.44453204      -1.26053236       0.00000000
Si      -1.03065201       1.89312606       1.10061408       0.00000000
Si       2.87948297       0.29810700       0.72430130       0.00000000
Si       2.27824188      -2.27682072      -0.05454657       0.00000000
Si       2.19418548       2.93716845      -0.21542967       0.00000000
Si      -0.04613328       2.65269618      -2.82370689       0.00000000
Si      -3.01281921       2.47259394       0.07184435       0.00000000
Si       2.70612805      -0.06840171      -2.82346569       0.00000000
Si      -2.74828590      -0.06226038      -2.80086142       0.00000000
