10
Lattice="16.28999089631971 0.0 0.0 0.0 16.28999089631971 0.0 0.0 0.0 34.45770212530097" Properties=species:S:1:pos:R:3:initial_magmoms:R:1 pbc="T T T"
Si       2.26822516      -0.08566911       0.59474027       0.00000000
Si      -1.51257537      -0.61750503       1.71134273       0.00000000
Si      -0.11865636      -2.07215316      -1.21783925       0.00000000
Si      -0.67909752       2.20234284      -0.74607858       0.00000000
Si      -3.20430816      -1.31487993       0.22969517       0.00000000
Si       3.37772240      -0.38762055      -1.47951118       0.00000000
Si       1.11135267      -3.58826346       0.23396793       0.00000000
Si       2.40791191       1.64682126      -2.39632778       0.00000000
Si       2.69139537      -2.26562949       1.40263601       0.00000000
Si      -2.38255911       1.71004275      -2.57399179       0.00000000
