10
Lattice="16.28999089631971 0.0 0.0 0.0 16.28999089631971 0.0 0.0 0.0 34.45770212530097" Properties=species:S:1:pos:R:3:initial_magmoms:R:1 pbc="T T T"
Si      -1.60502112      -0.79179174      -1.47692685       0.00000000
Si       0.05610276      -1.25985231       1.97187756       0.00000000
Si       2.03949564      -0.76229055      -0.91412889       0.00000000
Si      -0.70740954       2.30410647       0.53161373       0.00000000
Si       0.13734099       0.52587378       3.46255305       0.00000000
Si      -1.84958289       1.12093119      -2.90140906       0.00000000
Si       3.53700602       0.76589064      -0.05744102       0.00000000
Si      -0.47447883      -2.62596429      -2.51927293       0.00000000
Si      -3.59528445      -1.14355800      -0.12487478       0.00000000
Si      -2.16011916       2.89986435      -1.35163858       0.00000000
