10
Lattice="16.28999089631971 0.0 0.0 0.0 16.28999089631971 0.0 0.0 0.0 34.45770212530097" Properties=species:S:1:pos:R:3:initial_magmoms:R:1 pbc="T T T"
Si      -1.40729377       1.28930463       1.34281740       0.00000000
Si       1.33264255       1.36976094      -1.36762696       0.00000000
Si      -1.38231300      -1.34899119      -1.36011518       0.00000000
Si       1.43966785      -1.36524861       1.47537626       0.00000000
Si      -0.42788617      -2.20841901       2.76891912       0.00000000
Si       0.17335492       0.36650871       3.54776699       0.00000000
Si       2.67974410       2.70909216       0.00441059       0.00000000
Si       2.68692799       0.01094688      -2.72150529       0.00000000
Si       2.70667147      -2.71808424       0.00065470       0.00000000
Si      -0.02574472      -2.70443322      -2.72174650       0.00000000
