10
Lattice="16.28999089631971 0.0 0.0 0.0 16.28999089631971 0.0 0.0 0.0 34.45770212530097" Properties=species:S:1:pos:R:3:initial_magmoms:R:1 pbc="T T T"
Si      -0.64597995      -2.15197416       0.66844534       0.00000000
Si      -0.23977251       1.06934076      -2.15029965       0.00000000
Si       2.32815607      -0.71773740      -0.35191671       0.00000000
Si      -1.42307811       0.81142119       1.88983373       0.00000000
Si       1.24265052      -2.46040902       2.27935458       0.00000000
Si       2.18699507      -1.16683641      -2.73301417       0.00000000
Si      -1.16989893      -0.80003448      -3.45845258       0.00000000
Si       0.20087199      -3.67214067      -0.87939551       0.00000000
Si       0.30279852      -2.53702089      -2.91253890       0.00000000
Si       3.71313350       1.25991747       0.30164289       0.00000000
