10
Lattice="16.28999089631971 0.0 0.0 0.0 16.28999089631971 0.0 0.0 0.0 34.45770212530097" Properties=species:S:1:pos:R:3:initial_magmoms:R:1 pbc="T T T"
Si       1.64004462      -1.48486608       0.74824942       0.00000000
Si      -0.64772298      -1.09299384      -1.97508213       0.00000000
Si       1.18853469       1.55592306      -1.31152979       0.00000000
Si      -1.55582532       0.67792464       1.65900145       0.00000000
Si       0.70991820      -3.35424132      -0.55990351       0.00000000
Si      -0.78304401       2.42784531      -2.41207495       0.00000000
Si       2.69161299       2.77925319       0.06801954       0.00000000
Si      -1.35707103       0.44204544      -3.62963854       0.00000000
Si      -3.30778224       2.00109618       0.79400927       0.00000000
Si       3.60468608      -1.59268959      -0.58843451       0.00000000
