10
Lattice="16.28999089631971 0.0 0.0 0.0 16.28999089631971 0.0 0.0 0.0 34.45770212530097" Properties=species:S:1:pos:R:3:initial_magmoms:R:1 pbc="T T T"
Si       1.29401244      -1.33543791       1.48119961       0.00000000
Si       0.88962948       1.92004270      -1.09942253       0.00000000
Si      -0.86315823      -1.83948309      -1.31961499       0.00000000
Si      -1.43193987       1.34033666       1.47416334       0.00000000
Si       2.68000704      -2.52429840       0.00311842       0.00000000
Si      -2.61099378      -2.64756483       0.12767620       0.00000000
Si      -1.01998206       3.33432584      -1.32254390       0.00000000
Si      -2.83284729       2.63244349       0.09052733       0.00000000
Si       2.64063573       0.00773775       2.84826836       0.00000000
Si       0.94091040      -3.53110185      -1.34921417       0.00000000
