10
Lattice="16.28999089631971 0.0 0.0 0.0 16.28999089631971 0.0 0.0 0.0 34.45770212530097" Properties=species:S:1:pos:R:3:initial_magmoms:R:1 pbc="T T T"
Si       1.35784818       1.35640188      -1.35684169       0.00000000
Si       1.35683861      -1.35713619       1.35715181       0.00000000
Si      -1.35889551      -1.35567009      -1.35697953       0.00000000
Si      -1.35752715       1.35772882       1.35722073       0.00000000
Si       2.71309365       0.00140094      -2.71289086       0.00000000
Si      -2.71559187       0.00131949      -2.71237400       0.00000000
Si      -0.00179190       2.71425513       2.71485495       0.00000000
Si      -0.00120546      -2.71459818       2.71482049       0.00000000
Si      -2.71485882      -2.71495656       0.00003446       0.00000000
Si       2.71498818      -2.71485882      -0.00006892       0.00000000
