10
Lattice="16.28999089631971 0.0 0.0 0.0 16.28999089631971 0.0 0.0 0.0 34.45770212530097" Properties=species:S:1:pos:R:3:initial_magmoms:R:1 pbc="T T T"
Si       0.69835393       1.33734384      -1.80865134       0.00000000
Si       0.96981049      -2.03444181       0.91681659       0.00000000
Si      -0.85734075       1.98627228       1.42692870       0.00000000
Si       0.56295796      -0.91083906      -3.02480216       0.00000000
Si      -0.13968675      -1.73249037       2.99106805       0.00000000
Si      -3.08700943       0.55552158       1.65024919       0.00000000
Si      -2.40791191      -1.64682126       2.39632778       0.00000000
Si       1.10918773       3.50858907       1.07735512       0.00000000
Si       3.86685667      -0.38069730      -0.43892245       0.00000000
Si       0.90504145       3.65444973      -1.25398540       0.00000000
