10
Lattice="16.28999089631971 0.0 0.0 0.0 16.28999089631971 0.0 0.0 0.0 34.45770212530097" Properties=species:S:1:pos:R:3:initial_magmoms:R:1 pbc="T T T"
Si       1.35539316       1.33962444       1.38854280       0.00000000
Si      -1.35932068      -1.37573937       1.38757798       0.00000000
Si       1.49237577      -1.24636419      -1.44602172       0.00000000
Si      -1.32217622       1.52529786      -1.45030137       0.00000000
Si       2.72502378       2.69316054      -0.00164363       0.00000000
Si      -2.70817082       2.71415835       0.02777981       0.00000000
Si       2.70855459      -2.71793763       0.02789697       0.00000000
Si      -2.73024377      -2.71120986       0.02705965       0.00000000
Si      -0.00276930       2.70026298       2.74900255       0.00000000
Si       2.71410948      -0.01692531       2.74989845       0.00000000
