10
Lattice="16.28999089631971 0.0 0.0 0.0 16.28999089631971 0.0 0.0 0.0 34.45770212530097" Properties=species:S:1:pos:R:3:initial_magmoms:R:1 pbc="T T T"
Si      -0.89535120      -1.71626553      -1.26521861       0.00000000
Si       0.82069346      -0.39087855       2.15588180       0.00000000
Si       1.75632590       1.02667725      -1.24257989       0.00000000
Si      -1.66839315       1.87074360       0.17745727       0.00000000
Si       0.68529749      -2.63906145       0.93973098       0.00000000
Si      -2.24031876      -0.28447227      -2.60827722       0.00000000
Si       1.02738098       1.92622734       2.71054774       0.00000000
Si       0.49113373       2.44524303      -2.61509985       0.00000000
Si      -3.22483749      -1.04404239       1.31604375       0.00000000
Si      -2.19418548      -2.93716845       0.21542967       0.00000000
