10
Lattice="16.28999089631971 0.0 0.0 0.0 16.28999089631971 0.0 0.0 0.0 34.45770212530097" Properties=species:S:1:pos:R:3:initial_magmoms:R:1 pbc="T T T"
Si       0.17713746      -0.56813004       2.32014175       0.00000000
Si      -0.95475853      -1.94191461      -1.09379145       0.00000000
Si      -1.13046410       2.12126751      -0.32789968       0.00000000
Si       2.18346273       0.67362408      -0.82812242       0.00000000
Si      -1.67241252       1.77684804      -2.65793080       0.00000000
Si       2.24841096       0.41205555       2.92983668       0.00000000
Si       0.44970174       3.79332198       0.62868113       0.00000000
Si       3.59347626       0.97350669       1.06488142       0.00000000
Si       0.15473871      -2.24386605      -3.16804290       0.00000000
Si      -1.77045389       0.24838992       3.51355048       0.00000000
