10
Lattice="16.28999089631971 0.0 0.0 0.0 16.28999089631971 0.0 0.0 0.0 34.45770212530097" Properties=species:S:1:pos:R:3:initial_magmoms:R:1 pbc="T T T"
Si      -0.67652044      -0.33381468       2.29336810       0.00000000
Si       2.32969806       0.27582228      -0.63285051       0.00000000
Si      -0.16721685       2.32611426      -0.68398577       0.00000000
Si      -1.58016584      -1.67205447      -0.95658080       0.00000000
Si       1.97143209      -1.03829202      -2.59049704       0.00000000
Si      -1.89037142       2.74287762       0.77991607       0.00000000
Si      -0.72769222       1.97180676       2.71830072       0.00000000
Si      -0.41484114       1.79944227      -2.98176446       0.00000000
Si      -3.48026795      -1.01846709       0.35226129       0.00000000
Si      -0.15558579      -0.49415715      -3.63618551       0.00000000
