10
Lattice="16.28999089631971 0.0 0.0 0.0 16.28999089631971 0.0 0.0 0.0 34.45770212530097" Properties=species:S:1:pos:R:3:initial_magmoms:R:1 pbc="T T T"
Si      -1.32880788      -1.19910690       1.54332688       0.00000000
Si      -0.40731516       2.22001327       0.73846343       0.00000000
Si       2.36297853      -0.26583651      -0.26780541       0.00000000
Si      -0.34554348      -0.15574869      -2.37272424       0.00000000
Si       1.07129556       1.90986796      -2.42423853       0.00000000
Si       0.69854778      -2.35240632      -2.33681929       0.00000000
Si      -3.36804614      -0.03872133       1.19271957       0.00000000
Si      -2.77039306       2.30991453       0.90916698       0.00000000
Si      -1.06955253      -3.49270632       0.88890584       0.00000000
Si       0.32571855       3.71085290      -0.94996492       0.00000000
