10
Lattice="16.28999089631971 0.0 0.0 0.0 16.28999089631971 0.0 0.0 0.0 34.45770212530097" Properties=species:S:1:pos:R:3:initial_magmoms:R:1 pbc="T T T"
Si       1.69155360      -1.52518383      -0.62399488       0.00000000
Si       0.24781977       1.72186833      -1.60948571       0.00000000
Si      -1.64675610      -1.69510482      -0.50108418       0.00000000
Si       0.01931994       1.14658209       2.14833556       0.00000000
Si       2.55912642       1.38586428      -2.05247417       0.00000000
Si      -3.36991067      -1.27834146       0.96281765       0.00000000
Si       3.61056447      -0.86275098       0.60166627       0.00000000
Si      -2.25407011       1.95084872       2.41383230       0.00000000
Si       0.85015881      -3.74539680      -0.44994893       0.00000000
Si       1.29259521      -0.16741233       3.67126347       0.00000000
