10
Lattice="16.28999089631971 0.0 0.0 0.0 16.28999089631971 0.0 0.0 0.0 34.54679606040008" Properties=species:S:1:pos:R:3:initial_magmoms:R:1 pbc="T T T"
Si      -1.39656681       0.57764340      -1.77719182       0.00000000
Si      -1.02588786      -2.07264186       0.61448420       0.00000000
Si      -0.64026868       1.45663781       1.81989169       0.00000000
Si       2.26329839       0.07685622      -0.96071239       0.00000000
Si       3.13093637       2.08979264      -0.14502753       0.00000000
Si      -0.58418872       0.01295055       3.75465153       0.00000000
Si      -1.16508591      -3.38626746      -1.34808583       0.00000000
Si       3.55312430      -1.41447699       0.31979987       0.00000000
Si      -0.84427910      -0.58095027      -3.74525480       0.00000000
Si      -1.49029947       2.86354484      -2.19061356       0.00000000
