10
Lattice="16.28999089631971 0.0 0.0 0.0 16.28999089631971 0.0 0.0 0.0 34.54679606040008" Properties=species:S:1:pos:R:3:initial_magmoms:R:1 pbc="T T T"
Si       1.36244673       1.35480020      -1.35026919       0.00000000
Si       1.35575154      -1.35705824       1.36069542       0.00000000
Si      -1.36244673       1.35841658       1.36059178       0.00000000
Si      -1.37968155      -1.36676285      -1.37367120       0.00000000
Si      -0.04075758       2.60785958      -2.70398615       0.00000000
Si       2.57743638      -0.09915560      -2.76804631       0.00000000
Si      -2.71834162      -2.70752573       0.00552749       0.00000000
Si       2.71502172      -2.71378109       0.00252192       0.00000000
Si       2.71507059       2.71517810       0.00404198       0.00000000
Si       2.71259451       0.00131949       2.71821253       0.00000000
