10
Lattice="16.28999089631971 0.0 0.0 0.0 16.28999089631971 0.0 0.0 0.0 34.54679606040008" Properties=species:S:1:pos:R:3:initial_magmoms:R:1 pbc="T T T"
Si       0.69056568       2.16562844       0.49833781       0.00000000
Si      -1.91646963      -0.78920556       1.20710028       0.00000000
Si       2.05151373      -1.22566353       0.20672814       0.00000000
Si       0.36364167       0.22136970      -2.40027818       0.00000000
Si      -1.18750842      -0.12028929       3.40717967       0.00000000
Si       1.22269482       0.06736273       3.41160166       0.00000000
Si       1.47082410      -3.15826026      -1.01584911       0.00000000
Si       1.94530293       2.04557114       2.44156163       0.00000000
Si       2.66260050       1.18398326      -2.46356795       0.00000000
Si      -2.14646814      -3.08666571       0.68834530       0.00000000
