10
Lattice="16.28999089631971 0.0 0.0 0.0 16.28999089631971 0.0 0.0 0.0 34.54679606040008" Properties=species:S:1:pos:R:3:initial_magmoms:R:1 pbc="T T T"
Si       2.13381081       0.58147155      -0.65773682       0.00000000
Si      -1.25473725       0.12005730      -1.94322382       0.00000000
Si      -0.72260811      -1.97820840       0.97004003       0.00000000
Si      -0.69335127       1.85029965       1.26206426       0.00000000
Si       0.16102665      -1.71285603       3.10264949       0.00000000
Si       1.60174683       2.26484757      -2.21489997       0.00000000
Si       0.84950721      -3.45869999      -0.01799889       0.00000000
Si       3.24374625       0.72451404       1.37371957       0.00000000
Si      -2.79080280       1.76523327      -1.47784367       0.00000000
Si       2.35558287      -1.11660619       2.56900483       0.00000000
