10
Lattice="16.28999089631971 0.0 0.0 0.0 16.28999089631971 0.0 0.0 0.0 34.54679606040008" Properties=species:S:1:pos:R:3:initial_magmoms:R:1 pbc="T T T"
Si      -1.50170994       0.61840098      -1.66633109       0.00000000
Si       2.18704653      -0.17306496      -0.87116704       0.00000000
Si       0.41216958       1.57208274       1.76917696       0.00000000
Si      -0.80909172      -1.98920285       1.09883056       0.00000000
Si      -0.60474996      -0.27290637       2.95395999       0.00000000
Si      -2.46870063      -1.25143038      -2.63937669       0.00000000
Si       3.71641689       0.39058533       0.86211578       0.00000000
Si       2.45643426      -2.11386696      -2.20609054       0.00000000
Si       2.74453920       1.72602324      -2.24554300       0.00000000
Si      -3.56718420       1.51096266      -0.82059051       0.00000000
