10
Lattice="16.28999089631971 0.0 0.0 0.0 16.28999089631971 0.0 0.0 0.0 34.54679606040008" Properties=species:S:1:pos:R:3:initial_magmoms:R:1 pbc="T T T"
Si       0.55939860      -1.60963023       1.64819401       0.00000000
Si      -0.82718991       0.45002591      -2.20567597       0.00000000
Si       2.31604704       0.68363591       0.03516866       0.00000000
Si      -1.24468632       1.60502926       1.35022773       0.00000000
Si      -0.78306030      -3.32648220       0.65214023       0.00000000
Si      -0.40500198      -3.05424372      -1.74084857       0.00000000
Si      -3.18678012       1.83291007       0.01012222       0.00000000
Si       2.93071761      -1.68990735       1.68163533       0.00000000
Si      -1.69482789      -1.56291051      -3.02136083       0.00000000
Si       3.51505620      -1.34804541      -0.53063908       0.00000000
