10
Lattice="16.28999089631971 0.0 0.0 0.0 16.28999089631971 0.0 0.0 0.0 34.54679606040008" Properties=species:S:1:pos:R:3:initial_magmoms:R:1 pbc="T T T"
Si      -0.63309456      -1.81022625       1.34839675       0.00000000
Si       1.19734758      -1.48515930      -1.48071105       0.00000000
Si      -1.77639192       1.12161537      -1.27163373       0.00000000
Si       1.61994276       1.23450507       1.39272031       0.00000000
Si       2.67208128      -2.42781273       0.24227682       0.00000000
Si      -0.51342822       2.37597795      -2.87650603       0.00000000
Si       3.51837936      -0.41896251       1.33955277       0.00000000
Si       2.48513724      -0.22573053      -2.97057701       0.00000000
Si      -2.32231869      -1.20174588       2.88441726       0.00000000
Si       1.09017567      -2.53620639       2.80077942       0.00000000
