10
Lattice="16.28999089631971 0.0 0.0 0.0 16.28999089631971 0.0 0.0 0.0 34.54679606040008" Properties=species:S:1:pos:R:3:initial_magmoms:R:1 pbc="T T T"
Si       1.35570267       1.35622395      -1.35672253       0.00000000
Si       1.35715248      -1.35702216       1.35751711       0.00000000
Si      -1.35759231       1.35759231       1.35737892       0.00000000
Si      -1.35790182      -1.35783666      -1.35699891       0.00000000
Si      -0.00008145      -2.71388142       2.71392872       0.00000000
Si       0.00060273       2.71376739       2.71451602       0.00000000
Si       2.71458189      -2.71456560      -0.00003455       0.00000000
Si       2.71420722       2.71505430      -0.00034547       0.00000000
Si      -2.71086777      -0.00456120      -2.71845435       0.00000000
Si       2.71428867       0.00000000       2.71524150       0.00000000
