10
Lattice="16.28999089631971 0.0 0.0 0.0 16.28999089631971 0.0 0.0 0.0 34.54679606040008" Properties=species:S:1:pos:R:3:initial_magmoms:R:1 pbc="T T T"
Si       0.58433859       0.34186194      -2.21227442       0.00000000
Si      -2.37131901       0.08027712      -0.03344132       0.00000000
Si       0.60160599      -1.79414802       1.46388675       0.00000000
Si      -0.61467057       2.37354327      -1.64646667       0.00000000
Si       1.67391153      -0.32972589       3.17948303       0.00000000
Si      -0.95622300      -1.11206943      -3.37204555       0.00000000
Si      -2.93071761       1.68990735      -1.68163533       0.00000000
Si      -2.87942040       1.26073802       2.10305919       0.00000000
Si       1.76518440      -3.65099625       0.35030471       0.00000000
Si      -0.41032881       4.08983975       0.20866276       0.00000000
