10
Lattice="16.28999089631971 0.0 0.0 0.0 16.28999089631971 0.0 0.0 0.0 34.54679606040008" Properties=species:S:1:pos:R:3:initial_magmoms:R:1 pbc="T T T"
Si      -1.79849745      -1.04496277       1.10710141       0.00000000
Si      -1.04899455       0.59870637      -2.03081834       0.00000000
Si       1.05717213       1.82016315       1.10087953       0.00000000
Si      -0.31091094      -2.31871371       2.48441730       0.00000000
Si       2.41008921       0.41938605       2.50996467       0.00000000
Si       3.24115614      -0.60300693      -1.81963366       0.00000000
Si      -3.01348710       0.40899303       2.52487853       0.00000000
Si      -0.31685679       3.12030063       2.51443503       0.00000000
Si       2.91369456      -2.77064297      -0.20253178       0.00000000
Si      -0.03207501       2.44369548      -3.21560138       0.00000000
