10
Lattice="16.28999089631971 0.0 0.0 0.0 16.28999089631971 0.0 0.0 0.0 34.54679606040008" Properties=species:S:1:pos:R:3:initial_magmoms:R:1 pbc="T T T"
Si      -1.35659862      -1.35849559       1.35686072       0.00000000
Si       1.35700587      -1.35720868      -1.35800077       0.00000000
Si      -1.35747828       1.35764755      -1.35772439       0.00000000
Si       1.35912357       1.35851581       1.35696436       0.00000000
Si      -0.00047241      -2.71225975       2.71164863       0.00000000
Si      -0.00144981       2.71552657      -2.71372144       0.00000000
Si       2.71469592      -2.71468696      -0.00055275       0.00000000
Si      -2.71479366      -2.71467067      -0.00027637       0.00000000
Si      -2.71432125      -0.00073018      -2.71524150       0.00000000
Si       0.00208512       2.71182874       2.71797070       0.00000000
