10
Lattice="16.28999089631971 0.0 0.0 0.0 16.28999089631971 0.0 0.0 0.0 34.54679606040008" Properties=species:S:1:pos:R:3:initial_magmoms:R:1 pbc="T T T"
Si       1.41537294      -1.18918140      -1.48675675       0.00000000
Si       1.63188333       0.87876405       1.50295920       0.00000000
Si      -1.27529523       1.49574780      -1.48323297       0.00000000
Si      -0.78626943      -2.09179564       1.09848509       0.00000000
Si      -0.04049694      -0.17658360       3.24194225       0.00000000
Si       2.83895604      -2.39778423      -0.04024704       0.00000000
Si       2.65189797       2.68920207      -0.12872143       0.00000000
Si       3.51771147      -0.53993205       1.31015343       0.00000000
Si       0.05929560      -2.55135996      -2.84527571       0.00000000
Si       1.10791548      -3.56411258       1.01412177       0.00000000
