10
Lattice="16.28999089631971 0.0 0.0 0.0 16.28999089631971 0.0 0.0 0.0 34.54679606040008" Properties=species:S:1:pos:R:3:initial_magmoms:R:1 pbc="T T T"
Si      -0.48084822       1.93903128       1.15037440       0.00000000
Si      -1.10993544      -0.14304249      -2.03145638       0.00000000
Si      -0.88816338      -1.84112023       1.19528526       0.00000000
Si       2.15277237      -0.97410942      -0.23909851       0.00000000
Si       1.45186254      -2.70036561      -1.72848081       0.00000000
Si      -3.24374625      -0.72451404      -1.37371957       0.00000000
Si      -0.27965043      -3.57572735      -0.37497113       0.00000000
Si       2.43818946      -1.71156912       2.04472236       0.00000000
Si       0.37607094      -1.77760878       3.17001578       0.00000000
Si       0.18176382      -1.54844106      -3.40645418       0.00000000
