10
Lattice="16.28999089631971 0.0 0.0 0.0 16.28999089631971 0.0 0.0 0.0 34.54679606040008" Properties=species:S:1:pos:R:3:initial_magmoms:R:1 pbc="T T T"
Si      -0.21414834       2.11727646       1.03319161       0.00000000
Si      -1.49382558       0.73166535      -1.69345034       0.00000000
Si      -1.73224602      -1.01988432       1.30583507       0.00000000
Si       2.24836209      -0.93002868      -0.15204053       0.00000000
Si      -2.46352041       2.22102747      -0.03572141       0.00000000
Si       1.38808719      -2.90483280      -1.33267795       0.00000000
Si      -0.02463048       1.96662654      -2.94967619       0.00000000
Si      -0.44198028      -1.54178334       3.32126174       0.00000000
Si       1.59293394       3.02303304      -1.59433553       0.00000000
Si       0.41251167       1.91598093       3.34534087       0.00000000
