10
Lattice="16.28999089631971 0.0 0.0 0.0 16.28999089631971 0.0 0.0 0.0 34.54679606040008" Properties=species:S:1:pos:R:3:initial_magmoms:R:1 pbc="T T T"
Si       1.24639677      -1.46119671      -1.31457542       0.00000000
Si      -1.28778966      -1.25942877       1.48986596       0.00000000
Si      -1.50519600       1.28195784      -1.30718240       0.00000000
Si       1.27166256       1.55831769       1.31084436       0.00000000
Si       2.58240483      -0.08089614      -2.67682544       0.00000000
Si      -0.14022432       2.63645505      -2.67471809       0.00000000
Si      -2.76869727      -2.62987389       0.11725189       0.00000000
Si      -0.13313817      -2.79735138      -2.67485627       0.00000000
Si      -2.48513724       0.22573053       2.97057701       0.00000000
Si       2.52169200      -2.95694451       0.16865755       0.00000000
