10
Lattice="16.28999089631971 0.0 0.0 0.0 16.28999089631971 0.0 0.0 0.0 34.54679606040008" Properties=species:S:1:pos:R:3:initial_magmoms:R:1 pbc="T T T"
Si      -2.15875080      -0.41622579       0.92782382       0.00000000
Si       0.74668473      -2.19895452      -0.58401391       0.00000000
Si      -1.29026574       0.52189902      -2.01542666       0.00000000
Si       1.75381398       1.47821976       0.98793528       0.00000000
Si       0.85449195       3.45776427       0.02407913       0.00000000
Si      -1.62668682      -2.09960181       2.48498698       0.00000000
Si       0.44198028       1.54178334      -3.32126174       0.00000000
Si      -0.33498756      -3.50500038       1.10998918       0.00000000
Si       0.15768720      -2.41839711      -2.91495664       0.00000000
Si      -2.13656382      -1.48695120      -3.11270261       0.00000000
