10
Lattice="16.28999089631971 0.0 0.0 0.0 16.28999089631971 0.0 0.0 0.0 34.54679606040008" Properties=species:S:1:pos:R:3:initial_magmoms:R:1 pbc="T T T"
Si       0.85854816       0.45185202       2.10597386       0.00000000
Si       0.64022958       1.17397143      -1.92449944       0.00000000
Si      -2.19647844       0.87519654       0.19805689       0.00000000
Si       0.73787184      -2.23875099      -0.47646968       0.00000000
Si      -0.40715226      -2.36200113      -2.45665859       0.00000000
Si       0.32156460      -0.46618722      -3.62485915       0.00000000
Si       3.17456262       0.39519540       1.94909678       0.00000000
Si      -3.45856248      -0.09572004      -1.50365014       0.00000000
Si      -1.00799262       2.79555948      -2.38625218       0.00000000
Si      -0.58531599       1.94634549       3.22705257       0.00000000
