10
Lattice="16.28999089631971 0.0 0.0 0.0 16.28999089631971 0.0 0.0 0.0 34.54679606040008" Properties=species:S:1:pos:R:3:initial_magmoms:R:1 pbc="T T T"
Si       1.35192339      -1.35826020      -1.35827714       0.00000000
Si      -1.35720135      -1.35705474       1.35610069       0.00000000
Si       1.35728280       1.35742941       1.35634252       0.00000000
Si      -1.35663120       1.35913986      -1.35986629       0.00000000
Si       2.71150308       0.00532683      -2.71070896       0.00000000
Si      -2.71463076       0.00048870       2.71365235       0.00000000
Si       0.00011403       2.71508688       2.71323779       0.00000000
Si       0.00060273      -2.71489140       2.71344507       0.00000000
Si       2.71526607       0.00003258       2.71358325       0.00000000
Si       2.71476108       2.71435383      -0.00207281       0.00000000
