10
Lattice="16.28999089631971 0.0 0.0 0.0 16.28999089631971 0.0 0.0 0.0 34.54679606040008" Properties=species:S:1:pos:R:3:initial_magmoms:R:1 pbc="T T T"
Si      -1.35682668       1.35661491       1.35596250       0.00000000
Si      -1.35553977      -1.35731538      -1.35751711       0.00000000
Si       1.35912357       1.35760860      -1.35737892       0.00000000
Si       1.36055709      -1.35668007       1.36055723       0.00000000
Si      -2.69210169       0.01083285       2.72007805       0.00000000
Si      -2.71334385       0.00052128      -2.71486149       0.00000000
Si      -2.71363707       2.71508688       0.00041456       0.00000000
Si      -2.71329498      -2.71557558       0.00051820       0.00000000
Si       0.00151497      -2.71450044      -2.71475785       0.00000000
Si       2.71663443       2.71282257       0.00089822       0.00000000
