10
Lattice="16.28999089631971 0.0 0.0 0.0 16.28999089631971 0.0 0.0 0.0 34.54679606040008" Properties=species:S:1:pos:R:3:initial_magmoms:R:1 pbc="T T T"
Si       1.23465168      -1.42361568      -1.41524484       0.00000000
Si      -1.33467228      -1.60443468       1.16360584       0.00000000
Si      -1.48970421       1.26565155      -1.41310294       0.00000000
Si       0.81202392       1.62017082       1.64726125       0.00000000
Si      -0.40281912      -0.02046024       3.29175876       0.00000000
Si       2.40272613       2.60363070      -0.00266010       0.00000000
Si      -2.67906969      -0.23956074       2.58506910       0.00000000
Si       0.29322000      -2.38022964       2.86890574       0.00000000
Si       2.56992669      -0.07783362      -2.77936039       0.00000000
Si       2.73210993      -2.63463057      -0.04504905       0.00000000
