10
Lattice="16.28999089631971 0.0 0.0 0.0 16.28999089631971 0.0 0.0 0.0 34.54679606040008" Properties=species:S:1:pos:R:3:initial_magmoms:R:1 pbc="T T T"
Si       1.02242556       1.92380013       0.94288623       0.00000000
Si      -0.67157154      -1.81745901       1.38201080       0.00000000
Si      -2.15884854       0.98717400      -0.50123974       0.00000000
Si       1.40366043      -1.16455581      -1.62325121       0.00000000
Si       0.03978018       2.03012496       3.08337237       0.00000000
Si       0.31832289      -0.26332785       3.70455865       0.00000000
Si      -3.31359777      -0.62529165      -1.71718400       0.00000000
Si       0.13046661       3.80021265      -0.21374115       0.00000000
Si       0.07206696      -2.73794175      -2.73514047       0.00000000
Si      -1.98412200       3.19272597      -1.23048847       0.00000000
