10
Lattice="16.28999089631971 0.0 0.0 0.0 16.28999089631971 0.0 0.0 0.0 34.54679606040008" Properties=species:S:1:pos:R:3:initial_magmoms:R:1 pbc="T T T"
Si       1.34470692       1.35096228      -1.36905575       0.00000000
Si      -1.35944937       1.35459495       1.35927900       0.00000000
Si       1.35663120      -1.35913986       1.35986629       0.00000000
Si      -1.36445040      -1.36052451      -1.40526426       0.00000000
Si       2.70855459      -2.71740006       0.00158915       0.00000000
Si      -2.71300176       2.71318095       0.00024183       0.00000000
Si      -0.00094482       2.71342530       2.71565606       0.00000000
Si       2.71270854       2.71686249      -0.00376560       0.00000000
Si       2.71391400      -0.00171045       2.71620881       0.00000000
Si      -2.71529865      -2.71557558      -0.00276375       0.00000000
