10
Lattice="16.28999089631971 0.0 0.0 0.0 16.28999089631971 0.0 0.0 0.0 34.54679606040008" Properties=species:S:1:pos:R:3:initial_magmoms:R:1 pbc="T T T"
Si      -1.35570267      -1.35622395       1.35672253       0.00000000
Si      -1.35355239       1.35858600      -1.35903717       0.00000000
Si       1.35944937      -1.35459495      -1.35927900       0.00000000
Si       1.35850455       1.35883035       1.35637706       0.00000000
Si      -2.71329498       0.00136836       2.71410146       0.00000000
Si       0.00144981      -2.71324611       2.71423964       0.00000000
Si      -2.71360449      -2.71406061      -0.00027637       0.00000000
Si      -2.71282257       2.71530885      -0.00086367       0.00000000
Si       2.71608057      -2.71373481       0.00058730       0.00000000
Si       2.71619460       0.00135207       2.71382508       0.00000000
