10
Lattice="16.28999089631971 0.0 0.0 0.0 16.28999089631971 0.0 0.0 0.0 34.54679606040008" Properties=species:S:1:pos:R:3:initial_magmoms:R:1 pbc="T T T"
Si       1.35796698       1.35705693      -1.35675708       0.00000000
Si      -1.35563751       1.35735128       1.35955537       0.00000000
Si      -1.35715248      -1.35821133      -1.35720619       0.00000000
Si       1.35430173      -1.35640314       1.36636109       0.00000000
Si       2.71334385       2.71431540      -0.00072548       0.00000000
Si      -2.71272483       2.71499144       0.00031092       0.00000000
Si       0.00097740       2.71432518      -2.71458511       0.00000000
Si       2.71515204       0.00004887      -2.71413600       0.00000000
Si      -2.71484253      -0.00073305      -2.71465420       0.00000000
Si       0.00001629      -2.71586880      -2.71410146       0.00000000
