10
Lattice="16.28999089631971 0.0 0.0 0.0 16.28999089631971 0.0 0.0 0.0 34.54679606040008" Properties=species:S:1:pos:R:3:initial_magmoms:R:1 pbc="T T T"
Si       1.20642111      -1.38895056       1.42560888       0.00000000
Si      -1.34074845      -1.35193968      -1.35257692       0.00000000
Si      -1.47282777       1.14082128       1.44592241       0.00000000
Si       1.37593485       1.36119572      -1.34801674       0.00000000
Si       0.53036982       1.82076003       2.59574407       0.00000000
Si       2.42455473       0.34844310       2.51138074       0.00000000
Si      -2.69687466       0.00182448      -2.70736483       0.00000000
Si      -2.68600923      -2.72692971       0.01516605       0.00000000
Si       2.70910845      -2.70475902       0.01872437       0.00000000
Si       0.01681128      -2.71194291      -2.70663934       0.00000000
