10
Lattice="16.28999089631971 0.0 0.0 0.0 16.28999089631971 0.0 0.0 0.0 34.54679606040008" Properties=species:S:1:pos:R:3:initial_magmoms:R:1 pbc="T T T"
Si      -0.88899417       1.53373675      -1.57657847       0.00000000
Si       0.01387908      -2.34391923       0.45290875       0.00000000
Si      -1.69155360       1.29735189       1.08062438       0.00000000
Si       2.47112784      -0.47154663      -0.20299709       0.00000000
Si       0.63636885      -2.68346799      -1.82783745       0.00000000
Si      -0.17754471       2.61849925       2.28150623       0.00000000
Si       2.39392953      -1.14231996      -2.44163072       0.00000000
Si       3.45323565       1.24201476       1.18291750       0.00000000
Si      -2.88575721       2.58083840      -0.59088873       0.00000000
Si      -2.24948610      -3.24439785       0.45449790       0.00000000
