10
Lattice="16.28999089631971 0.0 0.0 0.0 16.28999089631971 0.0 0.0 0.0 34.54679606040008" Properties=species:S:1:pos:R:3:initial_magmoms:R:1 pbc="T T T"
Si       0.02124216       1.92415429      -1.39420583       0.00000000
Si      -0.72516564      -1.64405196      -1.64207923       0.00000000
Si      -2.04527466       0.01713708       1.34490752       0.00000000
Si       2.41668666      -0.05852997       0.54514875       0.00000000
Si       3.04653951      -0.02793735      -1.73894850       0.00000000
Si      -2.97427707      -0.91220742      -1.98011982       0.00000000
Si       2.08336068       1.99019395      -2.51949924       0.00000000
Si      -3.58583625      -1.43679429       0.18513638       0.00000000
Si      -0.24814557       3.86495630      -0.05928234       0.00000000
Si      -1.24299216       1.86064284      -3.36893634       0.00000000
