10
Lattice="16.28999089631971 0.0 0.0 0.0 16.28999089631971 0.0 0.0 0.0 34.54679606040008" Properties=species:S:1:pos:R:3:initial_magmoms:R:1 pbc="T T T"
Si      -1.34218197      -1.35623535      -1.34947116       0.00000000
Si       1.35695700      -1.35636146       1.35958992       0.00000000
Si      -1.35617508       1.36034532       1.35900262       0.00000000
Si       1.36399428       1.36331010      -1.38862997       0.00000000
Si      -2.69078220      -0.02471030      -2.69623384       0.00000000
Si       2.71457604      -2.70686762       0.00300557       0.00000000
Si      -2.71634121      -2.70944144      -0.00400743       0.00000000
Si       0.00000000      -2.71209671       2.71593244       0.00000000
Si      -2.71313208       2.71562445      -0.00089822       0.00000000
Si      -2.71417464       0.00217960       2.71548333       0.00000000
