10
Lattice="16.28999089631971 0.0 0.0 0.0 16.28999089631971 0.0 0.0 0.0 34.54679606040008" Properties=species:S:1:pos:R:3:initial_magmoms:R:1 pbc="T T T"
Si      -1.35830907       1.35714267      -1.36104089       0.00000000
Si       1.35926433      -1.35798724      -1.36014267       0.00000000
Si      -1.34605899      -1.34599780       1.39082024       0.00000000
Si       1.35397334       1.34816036       1.39071660       0.00000000
Si       2.71434473      -2.71285912       0.00272920       0.00000000
Si      -2.71368594       2.71551364      -0.00694391       0.00000000
Si      -2.71368594      -0.00011581      -2.71707248       0.00000000
Si      -2.71735119      -2.71357588       0.00604569       0.00000000
Si       0.00117606       2.71427560      -2.71676156       0.00000000
Si       0.00151227      -2.71504198      -2.71665792       0.00000000
