10
Lattice="16.28999089631971 0.0 0.0 0.0 16.28999089631971 0.0 0.0 0.0 34.54679606040008" Properties=species:S:1:pos:R:3:initial_magmoms:R:1 pbc="T T T"
Si       1.35252018      -1.35576783       1.36131726       0.00000000
Si       1.37257212       1.33763706      -1.36773260       0.00000000
Si      -1.36114353       1.36166481       1.36021176       0.00000000
Si      -1.35154872      -1.36445040      -1.39136608       0.00000000
Si      -0.09853821       2.60760546      -2.64909817       0.00000000
Si       2.71055730      -2.71044423       0.00494019       0.00000000
Si       2.71088310       0.00201996       2.71797070       0.00000000
Si      -0.00390960      -2.71270854       2.71817798       0.00000000
Si       2.71509570       2.71586880       0.00269465       0.00000000
Si      -2.71788876      -2.71407690       0.00127823       0.00000000
