10
Lattice="16.28999089631971 0.0 0.0 0.0 16.28999089631971 0.0 0.0 0.0 34.54679606040008" Properties=species:S:1:pos:R:3:initial_magmoms:R:1 pbc="T T T"
Si       1.35529542      -1.35682668       1.35288784       0.00000000
Si       1.35560493       1.35695700      -1.35724074       0.00000000
Si      -1.35689184       1.35524655       1.35886444       0.00000000
Si      -1.35884664      -1.35785295      -1.35727528       0.00000000
Si       2.70646947      -0.00565263       2.69713897       0.00000000
Si      -2.69289990      -0.02505402       2.72111446       0.00000000
Si       2.71067229      -2.71519765      -0.00120914       0.00000000
Si      -0.00223173      -2.70998322       2.71759068       0.00000000
Si       2.71332756      -0.00037467      -2.71455056       0.00000000
Si       2.71342530       2.71502172      -0.00010364       0.00000000
