10
Lattice="16.28999089631971 0.0 0.0 0.0 16.28999089631971 0.0 0.0 0.0 34.54679606040008" Properties=species:S:1:pos:R:3:initial_magmoms:R:1 pbc="T T T"
Si      -1.35567009      -1.35832536      -1.37102491       0.00000000
Si       1.35798327       1.35935163      -1.36929757       0.00000000
Si      -1.19721726       1.51584966       1.36041904       0.00000000
Si       1.23551505      -1.54517166       1.34573665       0.00000000
Si      -2.66641236       0.28088847       2.61664489       0.00000000
Si       0.42034716       2.57225616       2.71575970       0.00000000
Si      -2.69467551       2.72686455      -0.00977675       0.00000000
Si       2.71081890       2.71625976      -0.00203826       0.00000000
Si       2.70769122      -2.71922454      -0.03275038       0.00000000
Si      -2.69167815      -2.73862593      -0.00877489       0.00000000
