10
Lattice="16.28999089631971 0.0 0.0 0.0 16.28999089631971 0.0 0.0 0.0 34.54679606040008" Properties=species:S:1:pos:R:3:initial_magmoms:R:1 pbc="T T T"
Si      -2.06632134      -0.10210572       1.13358465       0.00000000
Si       1.46530179      -1.48035375       1.24610363       0.00000000
Si      -0.04362462      -0.50217183      -2.37709727       0.00000000
Si       0.41945121       2.40036408       0.34152982       0.00000000
Si      -1.74765636       1.53805293       2.83394436       0.00000000
Si      -0.94294665       1.47737268      -3.34095342       0.00000000
Si      -3.75720705       0.73116036      -0.25063715       0.00000000
Si       2.29488633      -1.20697497      -2.86047631       0.00000000
Si       0.24368211       2.74735737       2.70871215       0.00000000
Si      -2.65224006       2.23915824      -1.74495964       0.00000000
