10
Lattice="16.28999089631971 0.0 0.0 0.0 16.28999089631971 0.0 0.0 0.0 34.54679606040008" Properties=species:S:1:pos:R:3:initial_magmoms:R:1 pbc="T T T"
Si      -1.45824822      -1.78797411       0.43390800       0.00000000
Si      -1.20715416       2.03598936      -0.27737638       0.00000000
Si       0.34883406      -0.88221753      -2.19361914       0.00000000
Si       0.83271222      -0.29921472       2.33847393       0.00000000
Si      -0.83158821      -1.98926964       2.74605726       0.00000000
Si      -1.82964393       2.37553812       2.00336982       0.00000000
Si       0.55040652       3.57713739      -0.89116965       0.00000000
Si       2.29335507       2.27467044      -1.95376060       0.00000000
Si       1.35940050       0.74085291      -3.55386544       0.00000000
Si      -0.19487727       1.48535478       3.62382274       0.00000000
