10
Lattice="16.28999089631971 0.0 0.0 0.0 16.28999089631971 0.0 0.0 0.0 34.54679606040008" Properties=species:S:1:pos:R:3:initial_magmoms:R:1 pbc="T T T"
Si       0.76676877       2.04691995      -0.89320791       0.00000000
Si       0.96511149      -0.54755577       2.11302142       0.00000000
Si      -2.40256323       0.53354637       0.15808623       0.00000000
Si       1.32698081      -1.87610301      -1.12525887       0.00000000
Si       1.31523572      -2.83380840       1.72219329       0.00000000
Si      -0.59166909       3.77010873      -0.01765342       0.00000000
Si      -0.37258488       0.11391597       3.90793575       0.00000000
Si       2.91884939       2.62575252      -0.11196623       0.00000000
Si      -0.36945720      -3.74337684      -1.28583247       0.00000000
Si      -3.23527545       0.83276109      -2.18038771       0.00000000
