10
Lattice="16.28999089631971 0.0 0.0 0.0 16.28999089631971 0.0 0.0 0.0 34.54679606040008" Properties=species:S:1:pos:R:3:initial_magmoms:R:1 pbc="T T T"
Si      -0.45256878      -1.94251734       1.16346765       0.00000000
Si      -1.91637189       1.00134630      -0.84574059       0.00000000
Si       1.02183912       1.18845324       1.72468066       0.00000000
Si       1.64379132      -0.09267381      -1.66225457       0.00000000
Si       2.65237431      -0.52688376       2.26879301       0.00000000
Si       1.57794714      -2.45936646      -2.06241033       0.00000000
Si      -1.37337732      -0.98673417       3.15308784       0.00000000
Si       1.72098963      -2.63998998       1.72316060       0.00000000
Si       1.48703265       3.24441414       0.62799201       0.00000000
Si      -0.70776792       1.25336889       3.37646755       0.00000000
