10
Lattice="16.28999089631971 0.0 0.0 0.0 16.28999089631971 0.0 0.0 0.0 34.54679606040008" Properties=species:S:1:pos:R:3:initial_magmoms:R:1 pbc="T T T"
Si       2.19106106      -0.21383883      -0.80245343       0.00000000
Si       0.13919805       1.31362560       1.96257003       0.00000000
Si      -0.46519353      -2.05596090       1.09668865       0.00000000
Si      -1.05611328       0.92527200      -2.07177252       0.00000000
Si      -1.48703265      -3.24441414      -0.62799201       0.00000000
Si       2.26944854       1.41100722      -2.47572843       0.00000000
Si       0.32080681       2.80531719      -2.39716897       0.00000000
Si       2.30167016      -2.47704111      -1.52403276       0.00000000
Si      -3.75614820      -0.26243190      -0.17567056       0.00000000
Si       1.16508591       3.38626746       1.34808583       0.00000000
