10
Lattice="16.28999089631971 0.0 0.0 0.0 16.28999089631971 0.0 0.0 0.0 34.54679606040008" Properties=species:S:1:pos:R:3:initial_magmoms:R:1 pbc="T T T"
Si      -1.00932840      -1.46157138      -1.54683162       0.00000000
Si      -1.39812183       1.32245478       1.37732971       0.00000000
Si       1.32530553      -1.38232053       1.39554279       0.00000000
Si       0.93432924       1.84205691      -1.37969413       0.00000000
Si      -2.75967261       2.52340245      -0.19104043       0.00000000
Si       2.66437611       2.65792527       0.03405280       0.00000000
Si      -2.65083912      -2.76672618      -0.16337189       0.00000000
Si      -0.03012021       2.68835499       2.74261985       0.00000000
Si       2.68798032      -0.03111390       2.74673092       0.00000000
Si       2.59243947      -2.85488766       0.09535267       0.00000000
