10
Lattice="16.28999089631971 0.0 0.0 0.0 16.28999089631971 0.0 0.0 0.0 34.54679606040008" Properties=species:S:1:pos:R:3:initial_magmoms:R:1 pbc="T T T"
Si      -0.80177262       1.03187376      -1.93880183       0.00000000
Si      -1.50292422       0.51844554       1.73767027       0.00000000
Si       0.70188560      -2.24147142      -0.36163606       0.00000000
Si       2.05009487       0.94980474       0.77018670       0.00000000
Si       1.93257881      -0.19868913       2.85481063       0.00000000
Si       2.70032651      -1.66443075      -1.45452457       0.00000000
Si      -0.34119405      -0.51249969       3.52456974       0.00000000
Si       1.15238555       1.09147887      -3.38310054       0.00000000
Si      -1.15189685       3.31812639      -1.54797370       0.00000000
Si      -0.62506522      -3.17068560      -2.10742483       0.00000000
