10
Lattice="16.28999089631971 0.0 0.0 0.0 16.28999089631971 0.0 0.0 0.0 34.54679606040008" Properties=species:S:1:pos:R:3:initial_magmoms:R:1 pbc="T T T"
Si       1.35695700       1.35573525      -1.35634252       0.00000000
Si      -1.35718506       1.35700806       1.35737892       0.00000000
Si       1.35801315      -1.35791811       1.35779348       0.00000000
Si      -1.35765747      -1.35899325      -1.35838078       0.00000000
Si       2.71457604       0.00522909      -2.71292686       0.00000000
Si      -0.00180819       2.71426653       2.71341052       0.00000000
Si       0.00000000       2.71209671      -2.71593244       0.00000000
Si      -2.71417464       2.71427631      -0.00044911       0.00000000
Si       2.71513153       2.71410689       0.00003455       0.00000000
Si      -2.71515204      -0.00004887       2.71413600       0.00000000
