10
Lattice="16.28999089631971 0.0 0.0 0.0 16.28999089631971 0.0 0.0 0.0 34.54679606040008" Properties=species:S:1:pos:R:3:initial_magmoms:R:1 pbc="T T T"
Si       0.27982962       2.12068826       1.01726553       0.00000000
Si       1.46297625       0.34639863      -1.87209192       0.00000000
Si       0.78316588      -1.38878766       1.80980402       0.00000000
Si      -2.03186799      -0.65713860      -1.17006609       0.00000000
Si      -1.68637338       0.24358437      -3.32910386       0.00000000
Si      -1.62238626      -2.96181522      -1.71248564       0.00000000
Si      -1.47295809       3.48562736       0.21512302       0.00000000
Si       0.23087817      -0.23019399       3.77786699       0.00000000
Si       1.43113256       2.70297431      -2.32852445       0.00000000
Si       0.45934542      -0.68540175      -3.75513519       0.00000000
