10
Lattice="16.28999089631971 0.0 0.0 0.0 16.28999089631971 0.0 0.0 0.0 34.54679606040008" Properties=species:S:1:pos:R:3:initial_magmoms:R:1 pbc="T T T"
Si       2.32842744       0.33099651      -0.22334516       0.00000000
Si      -0.96317883       2.01813130      -0.78055075       0.00000000
Si      -0.62985285      -0.03059262       2.28409724       0.00000000
Si      -0.61675569      -1.96333596      -1.18357389       0.00000000
Si       2.23469478       2.61689795      -0.63676690       0.00000000
Si      -3.04653951       0.02793735       1.73894850       0.00000000
Si       1.50379506      -2.70764235      -1.86601169       0.00000000
Si      -3.02529735       1.95209164       0.34474267       0.00000000
Si       0.42790572      -2.00938779       3.05031106       0.00000000
Si       0.35362332       3.68470745       0.24814977       0.00000000
