10
Lattice="16.28999089631971 0.0 0.0 0.0 16.28999089631971 0.0 0.0 0.0 34.54679606040008" Properties=species:S:1:pos:R:3:initial_magmoms:R:1 pbc="T T T"
Si      -1.41365760       1.34612415      -1.25800846       0.00000000
Si      -1.35757439      -1.32600600       1.36382536       0.00000000
Si       1.35749457       1.38592062       1.36061250       0.00000000
Si       1.27819485      -1.50258960      -1.54854027       0.00000000
Si       0.30900501       2.06148321      -2.63017135       0.00000000
Si       2.16152010       0.39864888      -2.78363871       0.00000000
Si      -2.72063178      -0.08817777      -2.44616603       0.00000000
Si       2.72218932      -2.67610491      -0.02540573       0.00000000
Si      -0.00713502      -2.68187157       2.72092791       0.00000000
Si      -2.70009796      -2.70423774      -0.00660190       0.00000000
