10
Lattice="16.28999089631971 0.0 0.0 0.0 16.28999089631971 0.0 0.0 0.0 34.54679606040008" Properties=species:S:1:pos:R:3:initial_magmoms:R:1 pbc="T T T"
Si       1.35483930      -1.35982567      -1.36318279       0.00000000
Si      -1.36126733       1.35685926      -1.36225002       0.00000000
Si       1.34082990       1.37189493       1.37523963       0.00000000
Si      -1.36449275      -1.36676684       1.38809104       0.00000000
Si       2.71127502      -2.71258541      -0.00013819       0.00000000
Si       2.71337643       2.71484253      -0.00494019       0.00000000
Si       2.71305063      -0.00034209      -2.72004351       0.00000000
Si      -2.71846610      -2.71492720      -0.00262556       0.00000000
Si      -2.71734209       2.71639008      -0.00328195       0.00000000
Si      -0.00177561       2.71498914      -2.71945621       0.00000000
