10
Lattice="16.28999089631971 0.0 0.0 0.0 16.28999089631971 0.0 0.0 0.0 34.54679606040008" Properties=species:S:1:pos:R:3:initial_magmoms:R:1 pbc="T T T"
Si       0.07838748       1.62484605      -1.67327500       0.00000000
Si      -2.19106106       0.21383883       0.80245343       0.00000000
Si       1.93763034       0.14963994       1.36674111       0.00000000
Si       0.11060910      -2.26320228      -0.72157933       0.00000000
Si       1.02170880      -3.19604913       1.30756241       0.00000000
Si       1.93284108       2.91983589      -1.06266004       0.00000000
Si      -3.24717434       1.13911083      -1.26931909       0.00000000
Si       3.68699715      -0.46760445      -0.17180131       0.00000000
Si      -2.65625459      -1.84212207       1.89914208       0.00000000
Si      -2.05186301       1.52746443       2.76502346       0.00000000
