10
Lattice="16.28999089631971 0.0 0.0 0.0 16.28999089631971 0.0 0.0 0.0 34.54679606040008" Properties=species:S:1:pos:R:3:initial_magmoms:R:1 pbc="T T T"
Si       1.35775207       1.35705474       1.35651525       0.00000000
Si       1.35752075      -1.35829278      -1.35768984       0.00000000
Si      -1.35801315       1.35791811      -1.35779348       0.00000000
Si      -1.35765477      -1.36018242       1.35775894       0.00000000
Si      -0.00105615       2.71365336      -2.71413600       0.00000000
Si       2.71460807       2.71479731      -0.00048366       0.00000000
Si       2.71380986      -0.00061902      -2.71582880       0.00000000
Si      -2.71519821       2.71492617      -0.00041456       0.00000000
Si      -2.71516563      -2.71539639      -0.00051820       0.00000000
Si       2.71527596      -2.71585251      -0.00065639       0.00000000
