10
Lattice="16.28999089631971 0.0 0.0 0.0 16.28999089631971 0.0 0.0 0.0 34.54679606040008" Properties=species:S:1:pos:R:3:initial_magmoms:R:1 pbc="T T T"
Si       0.17174547      -1.76624325       1.57402200       0.00000000
Si      -0.72896121      -0.66891627      -2.20007939       0.00000000
Si       2.41020324       0.18765202       0.00442199       0.00000000
Si      -1.22313465       2.04173063       0.59779809       0.00000000
Si       1.18750842       0.12028929      -3.40717967       0.00000000
Si       0.61423074       3.23753066       1.49767354       0.00000000
Si      -1.68270813      -3.06123309       0.96340704       0.00000000
Si       3.13281135       2.16586043      -0.96561804       0.00000000
Si       3.29383800       0.45300439       2.13703145       0.00000000
Si      -2.95153949       0.06826317      -2.63992944       0.00000000
