10
Lattice="16.28999089631971 0.0 0.0 0.0 16.28999089631971 0.0 0.0 0.0 34.281931910070035" Properties=species:S:1:pos:R:3:initial_magmoms:R:1 pbc="T T T"
Si       1.35558049       1.35684297      -1.35657109       0.00000000
Si      -1.35963592      -1.35839052      -1.35626255       0.00000000
Si       1.35320215      -1.35834165       1.36390742       0.00000000
Si      -1.36101225       1.35725022       1.36085633       0.00000000
Si      -2.70321051      -0.02088378       2.71753026       0.00000000
Si       2.71348231      -0.00120546      -2.71406778       0.00000000
Si      -0.00198086       2.71410948      -2.71454773       0.00000000
Si       2.71475293       2.71516833      -0.00113130       0.00000000
Si      -2.71611219       2.71386513       0.00010285       0.00000000
Si      -0.00213725      -2.71596491      -2.71430776       0.00000000
