10
Lattice="16.28999089631971 0.0 0.0 0.0 16.28999089631971 0.0 0.0 0.0 34.281931910070035" Properties=species:S:1:pos:R:3:initial_magmoms:R:1 pbc="T T T"
Si      -0.00742824       0.38475351       2.33714806       0.00000000
Si      -0.24827589      -2.39000364      -0.05433689       0.00000000
Si       0.20312001       0.92486475      -2.23850856       0.00000000
Si       2.24077095       1.07738802      -0.60281383       0.00000000
Si       1.76507037      -1.47903426       2.46552162       0.00000000
Si       2.26447290      -0.21304062      -2.63696768       0.00000000
Si       0.94249053       3.13766577      -1.94464367       0.00000000
Si       1.81848528      -3.36473208      -0.42142802       0.00000000
Si      -1.71761434      -3.09177684      -1.76541763       0.00000000
Si      -1.87216246      -0.50759640       3.53214625       0.00000000
