10
Lattice="16.28999089631971 0.0 0.0 0.0 16.28999089631971 0.0 0.0 0.0 34.281931910070035" Properties=species:S:1:pos:R:3:initial_magmoms:R:1 pbc="T T T"
Si       1.34998488       1.34964279       1.38908409       0.00000000
Si      -1.36360332      -1.36114190       1.38891268       0.00000000
Si      -1.21855716       1.54548117      -1.41922135       0.00000000
Si       1.43918892      -1.34260551      -1.48565634       0.00000000
Si      -2.70174537       0.21442527      -2.64078703       0.00000000
Si       2.71270854      -2.70768212       0.02508753       0.00000000
Si      -2.71407690       2.71643895       0.02241354       0.00000000
Si       2.71961550       2.71725345       0.00092561       0.00000000
Si      -2.72704374      -2.71468750      -0.00131300       0.00000000
Si      -0.00710244       2.70995553       2.74956332       0.00000000
