10
Lattice="16.28999089631971 0.0 0.0 0.0 16.28999089631971 0.0 0.0 0.0 34.281931910070035" Properties=species:S:1:pos:R:3:initial_magmoms:R:1 pbc="T T T"
Si      -1.34890974      -1.35545894       1.34515520       0.00000000
Si      -1.35467640       1.35664265      -1.35732529       0.00000000
Si       1.35870003      -1.35663182      -1.35756526       0.00000000
Si       1.35806472       1.36467199       1.36795269       0.00000000
Si       0.09871740      -2.40126065       2.82202165       0.00000000
Si      -2.61736317       0.11736135       2.65523996       0.00000000
Si       2.71044423       2.71677131       0.00188551       0.00000000
Si      -2.71282257      -0.00150826      -2.71482199       0.00000000
Si       0.00187335       2.71395314      -2.71513052       0.00000000
Si      -2.71575477       2.71431152       0.00531370       0.00000000
