10
Lattice="16.28999089631971 0.0 0.0 0.0 16.28999089631971 0.0 0.0 0.0 34.281931910070035" Properties=species:S:1:pos:R:3:initial_magmoms:R:1 pbc="T T T"
Si      -0.82934019       0.74200950       2.10107222       0.00000000
Si       0.70696971       1.88121807      -1.33373931       0.00000000
Si       1.68187734      -1.82351889       0.12667181       0.00000000
Si      -1.97680779      -0.85336794      -1.37175799       0.00000000
Si       1.99589967       0.46457451      -2.85229261       0.00000000
Si      -2.42945802      -1.19244429       2.46298677       0.00000000
Si       3.31939701      -0.87882921      -1.39980063       0.00000000
Si      -0.72207054      -2.26684798      -2.86638249       0.00000000
Si       0.92939337      -2.45032714       2.69113316       0.00000000
Si      -1.92580380       2.87308359       1.65187581       0.00000000
