10
Lattice="16.28999089631971 0.0 0.0 0.0 16.28999089631971 0.0 0.0 0.0 34.281931910070035" Properties=species:S:1:pos:R:3:initial_magmoms:R:1 pbc="T T T"
Si       2.33592084      -0.50375196      -0.32098191       0.00000000
Si      -0.21975210       1.52019909       1.93929569       0.00000000
Si      -0.72834219      -2.33462904       0.74714084       0.00000000
Si       1.07144217      -1.24377408      -2.90834360       0.00000000
Si       2.89206144      -0.19530081       1.98413648       0.00000000
Si       0.03062520      -3.49745390      -1.15684444       0.00000000
Si       2.28807711      -2.75143476      -1.31992368       0.00000000
Si      -1.95126833       1.65012813      -2.86727382       0.00000000
Si       2.01293901       1.80309123       2.88674597       0.00000000
Si      -1.68856439       0.76737303       3.59494252       0.00000000
