10
Lattice="16.28999089631971 0.0 0.0 0.0 16.28999089631971 0.0 0.0 0.0 34.281931910070035" Properties=species:S:1:pos:R:3:initial_magmoms:R:1 pbc="T T T"
Si      -1.03913910       1.01574666      -1.86092715       0.00000000
Si      -0.25265790       1.65612285       1.70004195       0.00000000
Si      -0.95107536      -2.17701189       0.46846286       0.00000000
Si       2.41642602      -0.18274122      -0.26945614       0.00000000
Si       2.87972991      -0.13861161       2.06771588       0.00000000
Si      -0.12443931      -0.41832720      -3.55037598       0.00000000
Si      -0.50971410      -2.42289315       2.81667366       0.00000000
Si       1.85999220       1.93692987       2.66442752       0.00000000
Si      -1.05725358       3.62861379       0.70936213       0.00000000
Si      -0.98831430       3.44851155      -1.64066561       0.00000000
