10
Lattice="16.28999089631971 0.0 0.0 0.0 16.28999089631971 0.0 0.0 0.0 34.281931910070035" Properties=species:S:1:pos:R:3:initial_magmoms:R:1 pbc="T T T"
Si      -1.32085836       1.34573319       1.53720269       0.00000000
Si       1.20529710      -1.45081998       1.63884867       0.00000000
Si       1.67291784       1.55602080      -1.14056051       0.00000000
Si      -1.86779511      -0.72373212      -1.77230831       0.00000000
Si      -1.78439031       1.53852534      -2.46600359       0.00000000
Si      -2.20063239       2.64038094      -0.37648439       0.00000000
Si       0.34352352       2.33671905      -2.91064049       0.00000000
Si      -0.02655270       2.61671157       3.07040608       0.00000000
Si       2.83139748      -2.82513072       0.55694458       0.00000000
Si       2.59423137      -0.19999233       3.17250116       0.00000000
