10
Lattice="16.28999089631971 0.0 0.0 0.0 16.28999089631971 0.0 0.0 0.0 34.281931910070035" Properties=species:S:1:pos:R:3:initial_magmoms:R:1 pbc="T T T"
Si       1.78429257      -1.02003093       1.02719010       0.00000000
Si      -2.04591716      -0.83473218       0.71536147       0.00000000
Si       0.53463780      -0.91439028      -2.09010199       0.00000000
Si      -0.37307521       2.32222095       0.12632899       0.00000000
Si      -0.82444505       0.62494956      -3.16189291       0.00000000
Si      -0.65365417      -2.91608105      -1.65739521       0.00000000
Si       1.85223816       2.91053430      -0.30778336       0.00000000
Si      -1.63447344       2.45975742      -1.86325832       0.00000000
Si       2.19146112       0.45947574       2.72496944       0.00000000
Si      -1.74193091      -0.25832682       3.07971907       0.00000000
