10
Lattice="16.28999089631971 0.0 0.0 0.0 16.28999089631971 0.0 0.0 0.0 34.281931910070035" Properties=species:S:1:pos:R:3:initial_magmoms:R:1 pbc="T T T"
Si      -1.33501437       1.31655780      -1.47991755       0.00000000
Si       1.72447569       1.02211605       1.38427090       0.00000000
Si       1.36792017      -1.41248961      -1.46911873       0.00000000
Si      -1.60192602      -1.29800349       1.47076426       0.00000000
Si       0.17337447      -1.68919155       3.02493652       0.00000000
Si      -2.67330303       2.72984562      -0.03033953       0.00000000
Si       2.80614798      -2.68105707       0.03932140       0.00000000
Si       2.77716807       2.72334591       0.04710340       0.00000000
Si       0.01726740       2.66799249      -2.85369817       0.00000000
Si      -2.78166411      -2.76801309      -0.05046303       0.00000000
