10
Lattice="16.28999089631971 0.0 0.0 0.0 16.28999089631971 0.0 0.0 0.0 34.281931910070035" Properties=species:S:1:pos:R:3:initial_magmoms:R:1 pbc="T T T"
Si       1.32564762       1.03265568       1.54728158       0.00000000
Si      -2.08503855       0.96456348       0.36451999       0.00000000
Si       0.62731161       0.27820062      -2.23271491       0.00000000
Si      -0.05043384      -2.32935597       0.49705401       0.00000000
Si      -3.01866732      -0.30579588      -1.45029794       0.00000000
Si      -1.48533849      -0.00260640      -3.19710047       0.00000000
Si       1.64704932      -1.79734086      -2.82942655       0.00000000
Si       0.49844142      -3.41894520      -1.54683591       0.00000000
Si       0.64241244       0.36957123       3.71972882       0.00000000
Si      -2.76341931       0.47167695       2.57176341       0.00000000
