10
Lattice="16.28999089631971 0.0 0.0 0.0 16.28999089631971 0.0 0.0 0.0 34.281931910070035" Properties=species:S:1:pos:R:3:initial_magmoms:R:1 pbc="T T T"
Si      -1.62986337      -1.02897414      -1.36318750       0.00000000
Si      -1.68327828       0.85672368       1.52376214       0.00000000
Si       1.46228814      -1.68997347       1.00672378       0.00000000
Si       0.76616757       2.31112746      -0.59396908       0.00000000
Si       0.02943603       1.93157046       2.74087425       0.00000000
Si       2.66748750      -2.40521850      -0.94518767       0.00000000
Si      -1.20997233      -0.25754490      -3.55260431       0.00000000
Si      -3.69662454      -0.05424570      -0.99609637       0.00000000
Si      -1.20757770       3.41314596      -1.54457331       0.00000000
Si       2.96448678      -0.72166329       2.52019448       0.00000000
