10
Lattice="16.28999089631971 0.0 0.0 0.0 16.28999089631971 0.0 0.0 0.0 34.281931910070035" Properties=species:S:1:pos:R:3:initial_magmoms:R:1 pbc="T T T"
Si       1.35205371       1.34534779       1.37407545       0.00000000
Si      -1.36529748      -1.36943514       1.36728762       0.00000000
Si       1.30662090      -1.40234094      -1.39198434       0.00000000
Si      -1.27351962       1.36507661      -1.51074388       0.00000000
Si      -2.16968139      -0.52253433      -2.74652735       0.00000000
Si      -0.51421014      -2.35375839      -2.63339001       0.00000000
Si       2.70430290       2.68622819      -0.00147412       0.00000000
Si      -2.71270854       2.70768212      -0.02508753       0.00000000
Si      -0.00201996       2.70286028       2.72711549       0.00000000
Si       2.71106325      -0.01008937       2.72673839       0.00000000
