10
Lattice="16.28999089631971 0.0 0.0 0.0 16.28999089631971 0.0 0.0 0.0 34.281931910070035" Properties=species:S:1:pos:R:3:initial_magmoms:R:1 pbc="T T T"
Si      -1.44762714       1.04580171      -1.47686645       0.00000000
Si       1.16960571       1.66042341       1.22249438       0.00000000
Si      -1.55385423      -1.30710960       1.28457899       0.00000000
Si       1.25693640      -1.65152907      -1.42465504       0.00000000
Si       0.36473310      -1.22735376       2.76127403       0.00000000
Si       2.46958029       0.15315858       2.41783744       0.00000000
Si      -0.09871740       2.40126065      -2.82202165       0.00000000
Si      -2.71608057       2.51862201      -0.16678169       0.00000000
Si       2.81766501       2.61604598      -0.12979147       0.00000000
Si       2.61676044      -0.31809483      -2.81783925       0.00000000
