10
Lattice="16.28999089631971 0.0 0.0 0.0 16.28999089631971 0.0 0.0 0.0 34.281931910070035" Properties=species:S:1:pos:R:3:initial_magmoms:R:1 pbc="T T T"
Si      -1.53387522      -1.13500901      -1.37758733       0.00000000
Si       1.37067155       1.57729880      -1.12405067       0.00000000
Si       1.34537318      -1.35181397       1.51542336       0.00000000
Si      -1.36810818       1.35451676       1.51835790       0.00000000
Si       2.76242399      -2.68585026       0.08174531       0.00000000
Si      -2.79667602      -2.67469161      -0.03845406       0.00000000
Si      -2.89677807       2.60918885       0.07320225       0.00000000
Si      -2.37056220       0.28778240      -3.15599783       0.00000000
Si       2.70881360       0.00173163       2.90564904       0.00000000
Si      -0.00825903       2.71580690       2.90321502       0.00000000
