10
Lattice="16.28999089631971 0.0 0.0 0.0 16.28999089631971 0.0 0.0 0.0 34.281931910070035" Properties=species:S:1:pos:R:3:initial_magmoms:R:1 pbc="T T T"
Si       0.40716855       1.47950667       1.69777934       0.00000000
Si      -1.78429257       1.02003093      -1.02719010       0.00000000
Si       1.86375519       0.33515046      -1.35228584       0.00000000
Si       0.08737956      -2.24924894       0.59246068       0.00000000
Si      -1.24965477       0.10564065      -3.11729209       0.00000000
Si       1.64276505      -1.85536421       2.41831739       0.00000000
Si       2.08212264       0.42313275       2.92747293       0.00000000
Si       0.80962929      -3.20832269      -1.57131323       0.00000000
Si      -2.11902763      -2.72090960       1.38817904       0.00000000
Si       1.05238287       3.54973761       0.72619457       0.00000000
