10
Lattice="16.28999089631971 0.0 0.0 0.0 16.28999089631971 0.0 0.0 0.0 34.281931910070035" Properties=species:S:1:pos:R:3:initial_magmoms:R:1 pbc="T T T"
Si      -1.05107967       2.09385144       0.18467687       0.00000000
Si      -0.88322751      -1.11718449       1.88204483       0.00000000
Si       2.29934979      -0.44313687       0.43027277       0.00000000
Si       0.07535754      -0.45240588      -2.35235892       0.00000000
Si       0.76038462      -0.00399105       3.39223334       0.00000000
Si      -2.81491200       1.74824280      -1.42410653       0.00000000
Si       3.20114790       1.71890451       0.09482388       0.00000000
Si       3.00868155      -2.02180077      -1.18660117       0.00000000
Si       0.23100849       3.72566539      -0.96603110       0.00000000
Si       2.31497190      -0.72477468      -3.01043525       0.00000000
