10
Lattice="16.28999089631971 0.0 0.0 0.0 16.28999089631971 0.0 0.0 0.0 34.281931910070035" Properties=species:S:1:pos:R:3:initial_magmoms:R:1 pbc="T T T"
Si      -0.70196868      -0.59657238       2.10024945       0.00000000
Si       1.87784604      -1.09594233      -0.73623918       0.00000000
Si       0.97966431       2.18199663       0.48268987       0.00000000
Si      -1.64361213      -1.11319344      -1.51018851       0.00000000
Si       1.53896517      -0.43914582      -2.96196057       0.00000000
Si      -0.76038462       0.00399105      -3.39223334       0.00000000
Si      -0.97832853       3.45080097       0.78207415       0.00000000
Si      -0.72806526      -2.97683460       2.12637230       0.00000000
Si      -2.76332157       0.54133299       2.49870857       0.00000000
Si       3.91950432      -0.48752712       0.22039866       0.00000000
