10
Lattice="16.28999089631971 0.0 0.0 0.0 16.28999089631971 0.0 0.0 0.0 34.281931910070035" Properties=species:S:1:pos:R:3:initial_magmoms:R:1 pbc="T T T"
Si       0.77022378       1.84748962      -1.17450924       0.00000000
Si       1.47325131      -1.19849896       1.37644433       0.00000000
Si      -1.24664112       1.50276064       1.38256023       0.00000000
Si      -1.15248492      -1.54665309      -1.51552762       0.00000000
Si      -0.16566930       1.25735179      -3.28687603       0.00000000
Si      -2.29117221       0.26329853      -2.68073685       0.00000000
Si      -2.64432312      -2.58580848      -0.00794998       0.00000000
Si       2.75724540      -2.51335056      -0.19624360       0.00000000
Si       0.11634318      -2.55142029       2.74919650       0.00000000
Si      -2.59889031       0.16188025       2.75810981       0.00000000
