10
Lattice="16.28999089631971 0.0 0.0 0.0 16.28999089631971 0.0 0.0 0.0 34.281931910070035" Properties=species:S:1:pos:R:3:initial_magmoms:R:1 pbc="T T T"
Si      -1.35001746       1.35573525      -1.36003356       0.00000000
Si      -1.35237951      -1.35209932       1.36606719       0.00000000
Si       1.36436895      -1.36061899      -1.35900510       0.00000000
Si       1.36559070       1.37932317       1.38015707       0.00000000
Si       0.20593818      -2.50198599       2.69034467       0.00000000
Si      -2.70858717       2.71355562      -0.00078848       0.00000000
Si      -2.70857088      -0.00281817      -2.71701603       0.00000000
Si      -2.71044423      -2.71677131      -0.00188551       0.00000000
Si       0.00568521       2.71282257      -2.71677606       0.00000000
Si       2.71914309       2.71134018      -0.00075420       0.00000000
