10
Lattice="16.28999089631971 0.0 0.0 0.0 16.28999089631971 0.0 0.0 0.0 34.281931910070035" Properties=species:S:1:pos:R:3:initial_magmoms:R:1 pbc="T T T"
Si       1.35746199       1.35666378      -1.35749670       0.00000000
Si      -1.35726651      -1.35821133      -1.35766811       0.00000000
Si      -1.35972630       1.35602847       1.35903939       0.00000000
Si       1.36102950      -1.35759231       1.35999928       0.00000000
Si      -2.71401174       2.71334385       0.00171410       0.00000000
Si       0.00032580       2.71423980      -2.71468486       0.00000000
Si      -0.00009774      -2.71507548      -2.71458201       0.00000000
Si      -2.71547784      -0.00092853      -2.71437632       0.00000000
Si       2.71560816       2.71443528      -0.00058279       0.00000000
Si       2.71437012      -2.71579549      -0.00013713       0.00000000
