10
Lattice="16.28999089631971 0.0 0.0 0.0 16.28999089631971 0.0 0.0 0.0 34.281931910070035" Properties=species:S:1:pos:R:3:initial_magmoms:R:1 pbc="T T T"
Si       0.11059281      -1.58508088       1.64632214       0.00000000
Si       0.42590205       2.06649271       0.98306923       0.00000000
Si      -2.30159781      -0.17288449      -0.52547375       0.00000000
Si       1.61718975      -0.40366492      -1.73384396       0.00000000
Si       0.26689536       3.13617556      -1.17569951       0.00000000
Si      -1.92849165      -1.57972147      -2.39486854       0.00000000
Si       1.71468540       1.83196558      -2.50971307       0.00000000
Si       0.34111260      -2.02877161      -2.90872070       0.00000000
Si      -1.58689035      -1.03710157       3.17766261       0.00000000
Si       2.29527729      -1.68370054       2.45187942       0.00000000
