10
Lattice="16.28999089631971 0.0 0.0 0.0 16.28999089631971 0.0 0.0 0.0 34.281931910070035" Properties=species:S:1:pos:R:3:initial_magmoms:R:1 pbc="T T T"
Si      -1.50219864      -0.96831018      -1.51347070       0.00000000
Si       1.14096789      -1.47248568       1.46852908       0.00000000
Si       1.28749644       1.36896273      -1.46232203       0.00000000
Si      -1.56058200       1.24558227       1.48032893       0.00000000
Si       2.57178375       2.66802507       0.08658250       0.00000000
Si       2.48746671      -0.10854027       2.85070536       0.00000000
Si       2.50517394      -2.84167647      -0.04838555       0.00000000
Si      -0.29699928      -1.68355521      -3.46538215       0.00000000
Si      -0.22698486       2.60693757       2.85660185       0.00000000
Si      -2.77988850      -2.70873378      -0.06257827       0.00000000
