10
Lattice="16.28999089631971 0.0 0.0 0.0 16.28999089631971 0.0 0.0 0.0 34.281931910070035" Properties=species:S:1:pos:R:3:initial_magmoms:R:1 pbc="T T T"
Si       1.35573525      -1.35524655       1.35605686       0.00000000
Si      -1.33359714      -1.36135530      -1.37627292       0.00000000
Si      -1.35733167       1.36060596       1.35701675       0.00000000
Si       1.35542574       1.35363384      -1.37151116       0.00000000
Si      -2.70806589       0.04629618      -2.63592208       0.00000000
Si      -0.00114030      -2.71336014       2.71492483       0.00000000
Si       2.71383255       0.00102627       2.71492483       0.00000000
Si       2.71445157      -2.71547784      -0.00589650       0.00000000
Si       2.71256193       2.71775844      -0.00270827       0.00000000
Si      -2.71819827      -2.71265967      -0.00620503       0.00000000
