10
Lattice="16.28999089631971 0.0 0.0 0.0 16.28999089631971 0.0 0.0 0.0 34.281931910070035" Properties=species:S:1:pos:R:3:initial_magmoms:R:1 pbc="T T T"
Si       1.35812988       1.35772263       1.35633111       0.00000000
Si      -1.35687555       1.35799956      -1.35763383       0.00000000
Si      -1.35586557      -1.35824391       1.35883369       0.00000000
Si       1.35847197      -1.35734796      -1.35756526       0.00000000
Si      -2.71386513       0.00099369      -2.71396494       0.00000000
Si      -2.71503801      -2.71407690       0.00013713       0.00000000
Si      -0.00232947       2.71295289       2.71629611       0.00000000
Si      -2.71433754       2.71508688       0.00065136       0.00000000
Si       0.00092853      -2.71547784      -2.71475342       0.00000000
Si       2.71560816      -2.71492398      -0.00037710       0.00000000
