10
Lattice="16.28999089631971 0.0 0.0 0.0 16.28999089631971 0.0 0.0 0.0 34.281931910070035" Properties=species:S:1:pos:R:3:initial_magmoms:R:1 pbc="T T T"
Si       1.35772263       1.35773892      -1.35622827       0.00000000
Si      -1.35812988      -1.35772263      -1.35633111       0.00000000
Si      -1.36045935       1.35523026       1.35996500       0.00000000
Si       1.35816246      -1.35651717       1.36202192       0.00000000
Si      -0.00003258       2.71466334      -2.71396494       0.00000000
Si       0.00034209      -2.71507059      -2.71389637       0.00000000
Si      -2.71500543       0.00027693      -2.71396494       0.00000000
Si      -2.71168227       2.71733490       0.00106274       0.00000000
Si       2.71554300      -0.00029322      -2.71365640       0.00000000
Si      -2.71399545      -2.71596654       0.00250258       0.00000000
