10
Lattice="16.28999089631971 0.0 0.0 0.0 16.28999089631971 0.0 0.0 0.0 34.281931910070035" Properties=species:S:1:pos:R:3:initial_magmoms:R:1 pbc="T T T"
Si      -1.05269238      -1.70122986       1.33716750       0.00000000
Si      -1.40247126       1.32006015      -1.51101128       0.00000000
Si       1.31053050      -1.38546450      -1.54258495       0.00000000
Si       1.34104167       1.49942934       1.54580746       0.00000000
Si       0.84885561      -3.33425349       1.32516882       0.00000000
Si       2.68418475      -2.63816550      -0.13404243       0.00000000
Si       2.77956270       2.69490357       0.06815252       0.00000000
Si      -2.77716807      -2.72334591      -0.04710340       0.00000000
Si      -0.18982737       3.12474780       2.33148121       0.00000000
Si      -2.29467456       1.74423546       2.67491780       0.00000000
