10
Lattice="16.28999089631971 0.0 0.0 0.0 16.28999089631971 0.0 0.0 0.0 34.281931910070035" Properties=species:S:1:pos:R:3:initial_magmoms:R:1 pbc="T T T"
Si      -2.10561282      -0.35548038      -1.00315845       0.00000000
Si       0.60214356       2.29837239      -0.20877708       0.00000000
Si       1.42754157      -1.14152175      -1.65986351       0.00000000
Si      -0.25405884      -1.38217392       2.11574489       0.00000000
Si       2.89623168       1.79758521       0.26661073       0.00000000
Si      -1.42237764       0.30760407      -3.17560569       0.00000000
Si      -2.36687184      -2.68734501      -0.46249780       0.00000000
Si       0.86439627       0.01308087      -3.61777430       0.00000000
Si      -1.03747752      -3.46804326       1.30758218       0.00000000
Si       0.73148616      -3.31227828      -2.19798729       0.00000000
