10
Lattice="16.28999089631971 0.0 0.0 0.0 16.28999089631971 0.0 0.0 0.0 34.281931910070035" Properties=species:S:1:pos:R:3:initial_magmoms:R:1 pbc="T T T"
Si       0.77056587      -2.19639699      -0.14196156       0.00000000
Si      -0.78107292       1.53497412       1.60854343       0.00000000
Si       1.06259670       1.36650294      -1.78612393       0.00000000
Si      -1.66886163      -0.78815907      -1.79630567       0.00000000
Si      -0.22621923      -2.60068221      -2.33144693       0.00000000
Si      -3.02707296       1.61665218       0.94882156       0.00000000
Si       0.73249614       3.25922175       1.29242956       0.00000000
Si       0.76919751       3.58207393      -1.03702902       0.00000000
Si      -0.48404106      -3.70884204       1.11382059       0.00000000
Si      -3.35228652      -1.95093927      -0.54312895       0.00000000
