10
Lattice="16.28999089631971 0.0 0.0 0.0 16.28999089631971 0.0 0.0 0.0 34.281931910070035" Properties=species:S:1:pos:R:3:initial_magmoms:R:1 pbc="T T T"
Si       1.69748316      -0.54797931      -1.53134047       0.00000000
Si       0.33819669       2.13604484       1.06740283       0.00000000
Si       0.50854122      -1.92696039       1.57731257       0.00000000
Si      -1.80270027      -0.08351883      -1.79243181       0.00000000
Si       1.13713974      -2.75304258      -2.05472302       0.00000000
Si       1.58689035       1.03710157      -3.17766261       0.00000000
Si       0.47493495       3.78855620      -0.56085272       0.00000000
Si      -0.71470746       0.86421708      -3.70313635       0.00000000
Si       1.22323239      -3.70947735       0.13414527       0.00000000
Si       3.88216764      -0.64659897      -0.72578319       0.00000000
