10
Lattice="16.28999089631971 0.0 0.0 0.0 16.28999089631971 0.0 0.0 0.0 34.281931910070035" Properties=species:S:1:pos:R:3:initial_magmoms:R:1 pbc="T T T"
Si      -1.47325131       1.19849896      -1.37644433       0.00000000
Si      -1.35690813      -1.35292133       1.37275217       0.00000000
Si       1.36262592       1.36077668       1.37096951       0.00000000
Si       1.28399409      -1.31485160      -1.57268793       0.00000000
Si       2.71541268      -2.70388361      -0.02831689       0.00000000
Si      -2.71989243       2.70125960       0.00611590       0.00000000
Si       2.71256193       2.71435676      -0.01587597       0.00000000
Si      -2.71404432      -2.71704593       0.00394928       0.00000000
Si      -0.00030951      -2.71341326       2.73271717       0.00000000
Si      -2.71313208       0.00494204       2.73432842       0.00000000
