10
Lattice="16.28999089631971 0.0 0.0 0.0 16.28999089631971 0.0 0.0 0.0 34.281931910070035" Properties=species:S:1:pos:R:3:initial_magmoms:R:1 pbc="T T T"
Si      -1.77903090      -0.92519055      -1.21491806       0.00000000
Si       0.95117310       1.66425156      -1.35557691       0.00000000
Si      -0.22160916       1.16538660       2.04920363       0.00000000
Si       1.71297495      -1.78005717       0.42643319       0.00000000
Si      -0.39755745      -2.33009717      -2.65071474       0.00000000
Si       1.96423191       0.82481157       2.86281717       0.00000000
Si       2.33926029       0.37388808      -2.69051608       0.00000000
Si       2.67900453       2.72930805      -0.09808066       0.00000000
Si       0.96778890      -3.63094570      -0.98217790       0.00000000
Si       3.60935901      -0.94376115      -1.11464336       0.00000000
