10
Lattice="16.28999089631971 0.0 0.0 0.0 16.28999089631971 0.0 0.0 0.0 34.281931910070035" Properties=species:S:1:pos:R:3:initial_magmoms:R:1 pbc="T T T"
Si      -0.96053985      -0.08721666      -2.13010903       0.00000000
Si       2.14589799       0.92769921      -0.26506805       0.00000000
Si      -1.44779004       1.30420998       1.33401356       0.00000000
Si      -0.09749565      -2.23563050       0.77586912       0.00000000
Si      -1.71468540      -1.83196558       2.50971307       0.00000000
Si       0.05616792      -1.99007504      -3.05623594       0.00000000
Si      -1.28878335       0.23452713       3.49278230       0.00000000
Si      -3.52048077       1.30303710       0.02444303       0.00000000
Si       1.75775616      -2.94468533      -1.59743607       0.00000000
Si       1.90263942       3.22761915      -0.58930674       0.00000000
