10
Lattice="16.28999089631971 0.0 0.0 0.0 16.28999089631971 0.0 0.0 0.0 34.281931910070035" Properties=species:S:1:pos:R:3:initial_magmoms:R:1 pbc="T T T"
Si       2.04591716       0.83473218      -0.71536147       0.00000000
Si       0.38038194      -2.31058079      -0.23702541       0.00000000
Si      -1.60884927       0.57081789      -1.72925018       0.00000000
Si       0.30398624       0.57640536       2.36435760       0.00000000
Si       1.39226299      -2.08134887      -2.37275668       0.00000000
Si       0.29029824      -1.64391512       3.12308574       0.00000000
Si       1.67284195       3.15695313      -0.58903248       0.00000000
Si      -1.71766647      -3.31997435       0.07490606       0.00000000
Si      -1.83312999      -2.34202049       2.31975678       0.00000000
Si       1.71118209      -2.90620835       1.70000767       0.00000000
