10
Lattice="16.28999089631971 0.0 0.0 0.0 16.28999089631971 0.0 0.0 0.0 34.281931910070035" Properties=species:S:1:pos:R:3:initial_magmoms:R:1 pbc="T T T"
Si      -2.11488183       0.19991088      -1.08063566       0.00000000
Si       1.32906852       1.98992124       0.12176949       0.00000000
Si       1.09551879      -2.01975542      -0.78947905       0.00000000
Si       0.06017526      -0.66915899       2.39034332       0.00000000
Si       3.23263502       0.89867043      -0.74487823       0.00000000
Si       3.21894702      -1.32165005       0.01384991       0.00000000
Si      -0.24550659      -3.55028237       0.38817453       0.00000000
Si      -2.54078388      -1.86658183      -2.06370489       0.00000000
Si      -3.65273928       0.88487280       0.55310500       0.00000000
Si       1.14163578       2.95816626       2.33693204       0.00000000
