10
Lattice="16.28999089631971 0.0 0.0 0.0 16.28999089631971 0.0 0.0 0.0 34.281931910070035" Properties=species:S:1:pos:R:3:initial_magmoms:R:1 pbc="T T T"
Si       1.34474764       1.34307792      -1.36425024       0.00000000
Si       1.25852468      -1.37510406       1.44659549       0.00000000
Si      -1.37073738      -1.37098269      -1.36195335       0.00000000
Si      -1.33200186       1.37779191       1.40127475       0.00000000
Si      -2.37319140      -0.39369672       2.58715600       0.00000000
Si      -0.57728013      -2.20793031       2.78681408       0.00000000
Si       2.70517441       2.70946683       0.01714098       0.00000000
Si      -0.00976423       2.70215262      -2.72236402       0.00000000
Si       2.70502780      -0.01306458      -2.72394099       0.00000000
Si      -2.72832969       2.70080055       0.01018174       0.00000000
