10
Lattice="16.28999089631971 0.0 0.0 0.0 16.28999089631971 0.0 0.0 0.0 34.281931910070035" Properties=species:S:1:pos:R:3:initial_magmoms:R:1 pbc="T T T"
Si       0.75201156      -1.00496268      -1.94598067       0.00000000
Si       1.00274724      -0.20706219       2.08194289       0.00000000
Si      -2.24468055      -0.65062260       0.23884235       0.00000000
Si      -0.05967027       2.30312907      -0.49540847       0.00000000
Si      -2.78324424       0.32508324      -1.90240831       0.00000000
Si      -0.03396465       1.78536771       3.03419264       0.00000000
Si      -2.32378479       2.46780468      -1.06016934       0.00000000
Si       3.26129288       0.30305916       1.50655462       0.00000000
Si       0.92025468       3.17539341       1.45033222       0.00000000
Si      -1.08326871      -0.51150600      -3.43412588       0.00000000
