10
Lattice="16.28999089631971 0.0 0.0 0.0 16.28999089631971 0.0 0.0 0.0 34.281931910070035" Properties=species:S:1:pos:R:3:initial_magmoms:R:1 pbc="T T T"
Si       0.95421933       1.39002570      -1.58386042       0.00000000
Si       0.61937838       1.30499190       1.81742335       0.00000000
Si      -2.36960856       0.25360272      -0.02043204       0.00000000
Si       1.03671189      -1.99242990      -0.95224975       0.00000000
Si       1.21474530      -0.60292548       3.07464535       0.00000000
Si       0.03396465      -1.78536771      -3.03419264       0.00000000
Si      -0.02570562       0.51776136      -3.52960112       0.00000000
Si      -3.06566397      -1.91715381      -0.55855583       0.00000000
Si       3.24489699       0.87081453      -1.77446807       0.00000000
Si      -2.93275386       1.40820534      -1.97834283       0.00000000
