10
Lattice="16.28999089631971 0.0 0.0 0.0 16.28999089631971 0.0 0.0 0.0 34.281931910070035" Properties=species:S:1:pos:R:3:initial_magmoms:R:1 pbc="T T T"
Si      -0.99808830      -1.78287534       1.33378528       0.00000000
Si      -0.01580130      -1.77251490      -1.73185560       0.00000000
Si       1.83352162       0.98823285       1.37191367       0.00000000
Si      -1.72455714       1.98462699      -0.11398749       0.00000000
Si       2.43117566      -1.46150622      -1.58739146       0.00000000
Si      -1.05551055       1.56103812      -2.83223767       0.00000000
Si      -2.18641122      -0.31719888       2.79347648       0.00000000
Si       2.97853595       0.99496062      -1.74827666       0.00000000
Si       0.53441882       2.38682709       2.80501235       0.00000000
Si      -1.41918480      -0.86120343      -3.38739959       0.00000000
