10
Lattice="16.28999089631971 0.0 0.0 0.0 16.28999089631971 0.0 0.0 0.0 34.281931910070035" Properties=species:S:1:pos:R:3:initial_magmoms:R:1 pbc="T T T"
Si      -1.25852468       1.37510406      -1.44659549       0.00000000
Si      -1.83580481      -0.83282625       1.34021860       0.00000000
Si       1.17973809       1.47000960       1.52122730       0.00000000
Si       1.45482732      -1.34978940      -1.42170679       0.00000000
Si      -2.59052654       2.75289597      -0.04532074       0.00000000
Si      -2.70136160      -2.69166186       0.12399782       0.00000000
Si      -2.62926206       0.00412137      -2.80854884       0.00000000
Si       0.08495235      -2.71147050      -2.80549775       0.00000000
Si       0.08622297       2.71818198      -2.81084573       0.00000000
Si       2.78166411       2.76801309       0.05046303       0.00000000
