10
Lattice="16.28999089631971 0.0 0.0 0.0 16.28999089631971 0.0 0.0 0.0 34.281931910070035" Properties=species:S:1:pos:R:3:initial_magmoms:R:1 pbc="T T T"
Si       1.70831342       0.99523755      -1.24910951       0.00000000
Si       1.38342104      -1.30619736       1.42089431       0.00000000
Si      -1.33763706       1.41382539       1.41945104       0.00000000
Si      -0.87555492      -1.70839746      -1.49810553       0.00000000
Si       0.12937518       1.84528233      -2.85738489       0.00000000
Si      -2.05798086       0.84795966      -2.96784134       0.00000000
Si      -2.67028938      -2.67423156      -0.11882810       0.00000000
Si       2.68252384      -2.70479160      -0.01220437       0.00000000
Si       0.02876814      -2.65412970       2.78533653       0.00000000
Si      -2.60367957       2.83546998       0.01613994       0.00000000
