10
Lattice="16.28999089631971 0.0 0.0 0.0 16.28999089631971 0.0 0.0 0.0 34.281931910070035" Properties=species:S:1:pos:R:3:initial_magmoms:R:1 pbc="T T T"
Si       1.35703845       1.35720135      -1.35633111       0.00000000
Si       1.35727930      -1.35711990       1.35715388       0.00000000
Si      -1.35702216      -1.35770634      -1.35759954       0.00000000
Si      -1.35782037       1.35803214       1.35742813       0.00000000
Si       2.71090754      -0.00063531      -2.71146236       0.00000000
Si       0.00008145      -2.71458189       2.71386209       0.00000000
Si       2.71421278      -2.71433754      -0.00078848       0.00000000
Si       2.71421929       2.71484253      -0.00010285       0.00000000
Si      -2.71554300       0.00029322       2.71365640       0.00000000
Si      -2.71520091      -2.71477737      -0.00023997       0.00000000
