10
Lattice="16.28999089631971 0.0 0.0 0.0 16.28999089631971 0.0 0.0 0.0 34.281931910070035" Properties=species:S:1:pos:R:3:initial_magmoms:R:1 pbc="T T T"
Si       1.35044100       1.44637281      -1.39613246       0.00000000
Si      -0.96852195       0.75282606       2.12273841       0.00000000
Si      -1.56362823      -1.30184793      -1.44913235       0.00000000
Si       1.56133134      -1.62546507       1.16311804       0.00000000
Si      -2.12995008      -1.38922749       2.10107222       0.00000000
Si       2.84530914       0.11955231       2.12126429       0.00000000
Si      -0.08671167      -2.49008940       2.64423545       0.00000000
Si       2.49649137      -0.07913682      -2.84907011       0.00000000
Si      -0.20541690       2.64684807      -2.83258049       0.00000000
Si       3.17850480       2.23397802      -0.06335305       0.00000000
