10
Lattice="16.28999089631971 0.0 0.0 0.0 16.28999089631971 0.0 0.0 0.0 34.281931910070035" Properties=species:S:1:pos:R:3:initial_magmoms:R:1 pbc="T T T"
Si       1.04813118       2.04200037       0.32471864       0.00000000
Si      -2.28424896       0.41956524      -0.03037381       0.00000000
Si       0.14421537      -1.74926907       1.58523170       0.00000000
Si       0.53279703      -0.61799373      -2.22133330       0.00000000
Si       3.10562890       0.98898219      -0.05810791       0.00000000
Si      -1.92016746      -2.84379417       0.91405966       0.00000000
Si       2.90497682      -0.74890017      -2.07104123       0.00000000
Si      -0.03139083      -0.71806320       3.75082255       0.00000000
Si       0.66357315       2.88564318       2.47597963       0.00000000
Si      -3.53885589      -1.09287981       1.22540834       0.00000000
