10
Lattice="16.28999089631971 0.0 0.0 0.0 16.28999089631971 0.0 0.0 0.0 34.281931910070035" Properties=species:S:1:pos:R:3:initial_magmoms:R:1 pbc="T T T"
Si      -1.83792318      -0.13797630      -1.38365383       0.00000000
Si       1.11549359      -2.02561263       0.37175348       0.00000000
Si      -0.76843351       0.97019982       2.02980004       0.00000000
Si       1.11269171       0.99261486      -1.97169213       0.00000000
Si      -0.35331870      -2.77843869       2.02740030       0.00000000
Si      -1.16334709      -0.94363083       3.32603489       0.00000000
Si       3.26012096       1.45003806      -1.01018625       0.00000000
Si      -0.04607464       3.08082996      -2.09082191       0.00000000
Si      -2.80683609       2.08046106       1.56545101       0.00000000
Si       3.34818470      -1.74272049       1.31920376       0.00000000
