10
Lattice="16.28999089631971 0.0 0.0 0.0 16.28999089631971 0.0 0.0 0.0 34.281931910070035" Properties=species:S:1:pos:R:3:initial_magmoms:R:1 pbc="T T T"
Si       1.28725209       1.39718175      -1.49877262       0.00000000
Si       0.46713204      -0.63891009       2.32548187       0.00000000
Si      -1.32141222      -1.32770016      -1.58951694       0.00000000
Si       0.17373285       1.57666090       3.07457678       0.00000000
Si      -2.75993325      -2.52317439      -0.11186201       0.00000000
Si       2.03243814       3.24807029      -0.09016153       0.00000000
Si       2.64244977      -0.00237834      -3.16418980       0.00000000
Si      -1.61318241       2.99575448       2.33065844       0.00000000
Si      -0.07809426       2.69803029      -3.16730946       0.00000000
Si      -0.05857884      -2.71207323      -3.17516003       0.00000000
