10
Lattice="16.28999089631971 0.0 0.0 0.0 16.28999089631971 0.0 0.0 0.0 34.281931910070035" Properties=species:S:1:pos:R:3:initial_magmoms:R:1 pbc="T T T"
Si      -0.29339919       2.21557099       0.74909491       0.00000000
Si      -0.46713204       0.63891009      -2.32548187       0.00000000
Si      -1.06259670      -1.36650294       1.78612393       0.00000000
Si       2.48767848      -0.17536185       0.58509006       0.00000000
Si      -2.73145833      -2.15466201      -0.01018174       0.00000000
Si      -0.33010056       1.89271881       3.07855349       0.00000000
Si       1.71613521       3.27367817       0.14045315       0.00000000
Si      -1.84366962       0.16847118       3.39466736       0.00000000
Si      -0.29203083      -3.56289993       1.64416237       0.00000000
Si       3.70408277      -0.72977571      -1.40981096       0.00000000
