10
Lattice="16.28999089631971 0.0 0.0 0.0 16.28999089631971 0.0 0.0 0.0 34.281931910070035" Properties=species:S:1:pos:R:3:initial_magmoms:R:1 pbc="T T T"
Si       0.09749565       2.23563050      -0.77586912       0.00000000
Si      -1.27607715      -1.62510669      -1.17487675       0.00000000
Si       2.13457644      -0.72746253       0.76321908       0.00000000
Si      -1.61718975       0.40366492       1.73384396       0.00000000
Si       1.85525181      -0.70905483      -2.37330519       0.00000000
Si       2.01911292       0.25049133       3.00806980       0.00000000
Si      -0.86304420       2.14841384      -2.90597815       0.00000000
Si      -3.54568140      -1.17605655      -0.66102458       0.00000000
Si      -1.35029439       3.53984048       0.55814445       0.00000000
Si       0.15366357       0.24555546      -3.83210505       0.00000000
