10
Lattice="16.28999089631971 0.0 0.0 0.0 16.28999089631971 0.0 0.0 0.0 34.281931910070035" Properties=species:S:1:pos:R:3:initial_magmoms:R:1 pbc="T T T"
Si      -1.31520573      -1.32620148       1.40185754       0.00000000
Si       0.38455803      -0.84364281      -2.15126099       0.00000000
Si      -1.28430360       2.03493051       0.38683754       0.00000000
Si       2.29660234      -0.38815812       0.77302371       0.00000000
Si       0.40260735       3.30589490      -0.50672152       0.00000000
Si      -0.43676748      -0.33813153       3.34938090       0.00000000
Si       1.76838768      -1.13961582       2.96093211       0.00000000
Si      -0.16811280       0.92146014      -3.56542576       0.00000000
Si      -0.66357315      -2.88564318      -2.47597963       0.00000000
Si      -0.69496398      -3.60370638       1.27484291       0.00000000
