10
Lattice="16.28999089631971 0.0 0.0 0.0 16.28999089631971 0.0 0.0 0.0 34.281931910070035" Properties=species:S:1:pos:R:3:initial_magmoms:R:1 pbc="T T T"
Si       2.09804841       1.00939356      -0.31193147       0.00000000
Si      -2.13457644       0.72746253      -0.76321908       0.00000000
Si       0.56821149      -2.35465434      -0.17398090       0.00000000
Si      -0.11546352       0.97795386       2.24485072       0.00000000
Si      -0.27932463       0.01840770      -3.13652427       0.00000000
Si       1.71766647       3.31997435      -0.07490606       0.00000000
Si      -1.45648890      -0.55257309       3.42250430       0.00000000
Si       3.42884856       0.41376600       1.62510161       0.00000000
Si      -2.03708079       2.96309303      -1.53908819       0.00000000
Si      -0.31022676      -3.34272429      -2.12150426       0.00000000
