10
Lattice="16.28999089631971 0.0 0.0 0.0 16.28999089631971 0.0 0.0 0.0 34.281931910070035" Properties=species:S:1:pos:R:3:initial_magmoms:R:1 pbc="T T T"
Si      -1.35719785      -1.35746199       1.35670821       0.00000000
Si      -1.35727930       1.35711990      -1.35715388       0.00000000
Si       1.35693347      -1.35721764      -1.35794236       0.00000000
Si       1.35887524       1.35905841       1.35705103       0.00000000
Si      -0.00146352      -2.71252935      -2.71523337       0.00000000
Si      -0.00024085       2.71432125      -2.71348499       0.00000000
Si       2.71338711      -0.00001629       2.71516481       0.00000000
Si       2.71449483      -2.71448415       0.00003428       0.00000000
Si      -2.71430146      -0.00058644      -2.71475342       0.00000000
Si       2.71457628       2.71479366       0.00010285       0.00000000
