10
Lattice="16.28999089631971 0.0 0.0 0.0 16.28999089631971 0.0 0.0 0.0 34.281931910070035" Properties=species:S:1:pos:R:3:initial_magmoms:R:1 pbc="T T T"
Si      -1.35570104      -1.35573525       1.35694819       0.00000000
Si       1.35689184      -1.35726651      -1.35770239       0.00000000
Si      -1.35763629       1.35716877      -1.35735957       0.00000000
Si       1.35827649       1.35985662       1.35715388       0.00000000
Si       0.00114030       2.71322982      -2.71372496       0.00000000
Si      -0.00169416       2.71249677       2.71461630       0.00000000
Si       0.00013032      -2.71311579      -2.71499340       0.00000000
Si      -2.71481714      -0.00047241      -2.71358784       0.00000000
Si      -2.71457628      -2.71479366      -0.00010285       0.00000000
Si       2.71477737      -2.71480995       0.00000000       0.00000000
