10
Lattice="16.28999089631971 0.0 0.0 0.0 16.28999089631971 0.0 0.0 0.0 34.281931910070035" Properties=species:S:1:pos:R:3:initial_magmoms:R:1 pbc="T T T"
Si       1.35570104       1.35573525      -1.35694819       0.00000000
Si       1.35451187      -1.35907470       1.35811377       0.00000000
Si      -1.35977891       1.35322659       1.36137056       0.00000000
Si      -1.35887524      -1.35905841      -1.35705103       0.00000000
Si       0.00976423      -2.70215262       2.72236402       0.00000000
Si       0.02193611       2.70816363       2.71753026       0.00000000
Si      -0.00193525       2.71290402      -2.71430776       0.00000000
Si       2.71259288      -0.00153126      -2.71465058       0.00000000
Si       2.71397753       2.71559187       0.00020569       0.00000000
Si      -2.71582875       2.71414206       0.00116559       0.00000000
