10
Lattice="16.28999089631971 0.0 0.0 0.0 16.28999089631971 0.0 0.0 0.0 34.281931910070035" Properties=species:S:1:pos:R:3:initial_magmoms:R:1 pbc="T T T"
Si      -2.37217979       0.13090644      -0.15029207       0.00000000
Si       1.15876634      -2.08821510       0.11912978       0.00000000
Si      -0.41839236       0.38398788      -2.34570822       0.00000000
Si       0.20065208       1.73788236       2.01293332       0.00000000
Si      -2.90497682       0.74890017       2.07104123       0.00000000
Si       3.35702039       0.80197299       1.30089720       0.00000000
Si       0.04607464      -3.08082996       2.09082191       0.00000000
Si      -1.79184854      -3.21880626       0.70716809       0.00000000
Si       2.04274319       2.89356012       1.25015991       0.00000000
Si      -2.03898413       2.24533215      -2.33490941       0.00000000
