10
Lattice="16.28999089631971 0.0 0.0 0.0 16.28999089631971 0.0 0.0 0.0 34.281931910070035" Properties=species:S:1:pos:R:3:initial_magmoms:R:1 pbc="T T T"
Si       1.84209112       1.15567776      -0.76277341       0.00000000
Si       0.80088319      -0.40891158       2.15907728       0.00000000
Si      -2.05749772       1.05301818       0.38282655       0.00000000
Si      -0.20065208      -1.73788236      -2.01293332       0.00000000
Si      -3.10562890      -0.98898219       0.05810791       0.00000000
Si       3.15636832      -0.93590937      -0.71203612       0.00000000
Si       3.08742904      -0.75580713       1.63799162       0.00000000
Si       0.97595182       2.12389020      -2.70943972       0.00000000
Si      -0.14545341       1.50850287       3.30711126       0.00000000
Si      -2.57283187      -1.60697592      -2.16322539       0.00000000
