10
Lattice="16.28999089631971 0.0 0.0 0.0 16.28999089631971 0.0 0.0 0.0 34.281931910070035" Properties=species:S:1:pos:R:3:initial_magmoms:R:1 pbc="T T T"
Si       0.23534163       2.30412276       0.06294166       0.00000000
Si       0.86613930      -0.96821244       1.94666631       0.00000000
Si       1.43482320      -0.84962124      -1.69191713       0.00000000
Si      -2.36971607       0.13981707      -0.31679951       0.00000000
Si      -1.50499889       2.09539899      -1.68437510       0.00000000
Si       3.35341053      -0.76986540      -0.21522209       0.00000000
Si      -0.97595182      -2.12389020       2.70943972       0.00000000
Si       3.43971495       1.22922711       1.22530550       0.00000000
Si       2.20594293       0.55278486       3.14790587       0.00000000
Si       0.19761399      -2.50760115      -2.96758281       0.00000000
