10
Lattice="16.28999089631971 0.0 0.0 0.0 16.28999089631971 0.0 0.0 0.0 34.281931910070035" Properties=species:S:1:pos:R:3:initial_magmoms:R:1 pbc="T T T"
Si       1.77759575       0.88071138      -1.45890271       0.00000000
Si       1.74034052       0.20872377       1.74731676       0.00000000
Si      -0.88762565      -1.89618858      -1.38118553       0.00000000
Si      -0.86471718      -1.95558192       1.36757559       0.00000000
Si       1.50499889      -2.09539899       1.68437510       0.00000000
Si       0.30775720       2.13703201      -2.73720810       0.00000000
Si      -2.39348223      -0.58927446      -2.71228512       0.00000000
Si       2.78115749       2.46240359      -0.00418240       0.00000000
Si      -1.10710980       3.49747019      -1.17933340       0.00000000
Si      -3.74867991       0.81028563      -1.04686794       0.00000000
