10
Lattice="16.28999089631971 0.0 0.0 0.0 16.28999089631971 0.0 0.0 0.0 34.281931910070035" Properties=species:S:1:pos:R:3:initial_magmoms:R:1 pbc="T T T"
Si      -0.52821465      -0.75145770       2.18790840       0.00000000
Si       1.29209185       1.98542520      -0.19283597       0.00000000
Si       0.94633660      -1.91741445      -1.14803398       0.00000000
Si      -2.29660234       0.38815812      -0.77302371       0.00000000
Si      -1.91204431      -0.45548469      -2.92428471       0.00000000
Si      -0.94493729      -3.03647229       1.69167716       0.00000000
Si       0.14545341      -1.50850287      -3.30711126       0.00000000
Si      -0.19165185       3.64330641       0.30267535       0.00000000
Si      -2.73336982       0.05002659       2.57635719       0.00000000
Si      -3.61180807      -0.93804336       0.62883383       0.00000000
