10
Lattice="16.28999089631971 0.0 0.0 0.0 16.28999089631971 0.0 0.0 0.0 34.281931910070035" Properties=species:S:1:pos:R:3:initial_magmoms:R:1 pbc="T T T"
Si       0.73937052       2.21280102       0.29386488       0.00000000
Si       2.06135289      -1.13790537      -0.39845912       0.00000000
Si      -1.80353106      -0.03440448      -1.59644190       0.00000000
Si      -0.20312001      -0.92486475       2.23850856       0.00000000
Si       2.03765094       0.15252327       1.63569473       0.00000000
Si      -1.12472676      -1.64312343      -3.11856052       0.00000000
Si       2.76332157      -0.54133299      -2.49870857       0.00000000
Si      -3.72673565      -0.68354469      -0.31933637       0.00000000
Si       1.78499304       2.90946798      -1.71663442       0.00000000
Si      -0.90078813       3.42500412       1.51776482       0.00000000
