10
Lattice="10.86 0.0 0.0 0.0 10.86 0.0 0.0 0.0 10.86" Properties=species:S:1:pos:R:3:initial_magmoms:R:1 pbc="T T T"
Si      -1.30841280      -1.28835438       1.32244392       0.00000000
Si       1.41467790       1.26264876       1.31778498       0.00000000
Si       1.40658720      -1.28835438      -1.39255608       0.00000000
Si      -1.30841280       1.42664562      -1.39255608       0.00000000
Si       0.20405940      -2.45909496       2.81128476       0.00000000
Si      -2.66591280      -2.64585438      -0.03505608       0.00000000
Si      -2.66591280       0.06914562       2.67994392       0.00000000
Si       0.04908720      -2.64585438      -2.75005608       0.00000000
Si       0.10145412       2.72170062       2.67521982       0.00000000
Si       2.76433698       2.63916462      -0.05062932       0.00000000
