10
Lattice="10.86 0.0 0.0 0.0 10.86 0.0 0.0 0.0 10.86" Properties=species:S:1:pos:R:3:initial_magmoms:R:1 pbc="T T T"
Si      -1.23796398       1.26699276      -1.27133676       0.00000000
Si       1.31733972       1.22880900       1.37520180       0.00000000
Si      -1.23796398      -1.44800724       1.44366324       0.00000000
Si       1.47703602      -1.44800724      -1.27133676       0.00000000
Si      -2.59546398       2.62449276       0.08616324       0.00000000
Si      -2.59546398      -0.09050724      -2.62883676       0.00000000
Si       0.11953602       2.62449276      -2.62883676       0.00000000
Si      -0.10419084       2.77988850       2.59752738       0.00000000
Si      -2.59546398      -0.09050724       2.80116324       0.00000000
Si      -2.59546398      -2.80550724       0.08616324       0.00000000
