10
Lattice="10.86 0.0 0.0 0.0 10.86 0.0 0.0 0.0 10.86" Properties=species:S:1:pos:R:3:initial_magmoms:R:1 pbc="T T T"
Si      -1.13377314       1.20210426      -1.15386414       0.00000000
Si       1.42153056      -1.55107950      -1.22232558       0.00000000
Si      -1.13377314      -1.51289574       1.56113586       0.00000000
Si       1.58122686       1.20210426       1.56113586       0.00000000
Si      -2.49127314      -0.15539574      -2.51136414       0.00000000
Si      -2.49127314       2.55960426       0.20363586       0.00000000
Si       0.22372686       2.55960426      -2.51136414       0.00000000
Si       0.10419084      -2.77988850      -2.59752738       0.00000000
Si      -2.49127314      -2.87039574       0.20363586       0.00000000
Si      -2.49127314      -0.15539574       2.91863586       0.00000000
