10
Lattice="16.28999089631971 0.0 0.0 0.0 16.28999089631971 0.0 0.0 0.0 34.383488856416385" Properties=species:S:1:pos:R:3:initial_magmoms:R:1 pbc="T T T"
Si      -1.37461440       1.18481568       1.65910741       0.00000000
Si       1.32507258       1.62296781      -1.30994087       0.00000000
Si      -1.92513169      -0.30481359      -1.60106603       0.00000000
Si       1.30251093      -1.52702038       1.65636361       0.00000000
Si      -1.77044185      -2.60574418      -1.60557027       0.00000000
Si      -2.70478738       2.58818289       0.24231090       0.00000000
Si       2.79630393       2.64019686       0.21142075       0.00000000
Si      -0.03110575       2.53693455       3.04612094       0.00000000
Si       2.33814768      -3.22680043       0.40030655       0.00000000
Si      -1.31227679      -0.21417603      -3.82753571       0.00000000
