10
Lattice="16.28999089631971 0.0 0.0 0.0 16.28999089631971 0.0 0.0 0.0 34.383488856416385" Properties=species:S:1:pos:R:3:initial_magmoms:R:1 pbc="T T T"
Si       0.08317511      -1.88128323      -1.40044028       0.00000000
Si      -2.32746048       0.27188010      -0.15943633       0.00000000
Si       0.58886232      -0.42479433       2.23602830       0.00000000
Si       1.77319582       1.23562908      -0.94176429       0.00000000
Si       3.45016987      -0.46499805      -0.71019136       0.00000000
Si       2.28012433      -2.62932003      -0.93509389       0.00000000
Si      -2.60512353       0.66293784      -2.45512001       0.00000000
Si      -3.22417611      -1.82228085       0.59294360       0.00000000
Si      -1.79687889      -3.22343262      -0.83500349       0.00000000
Si       1.93138801       3.34657917       0.17504644       0.00000000
