10
Lattice="16.28999089631971 0.0 0.0 0.0 16.28999089631971 0.0 0.0 0.0 34.383488856416385" Properties=species:S:1:pos:R:3:initial_magmoms:R:1 pbc="T T T"
Si      -0.12826746      -1.88742456      -1.35168447       0.00000000
Si       0.39415284      -0.51725637       2.26838318       0.00000000
Si       1.71347994       1.36080144      -0.90593667       0.00000000
Si      -1.82904283       1.50829110      -0.26881027       0.00000000
Si       1.28308185       3.14641350       0.55725352       0.00000000
Si      -0.13778082      -0.69623460      -3.43993245       0.00000000
Si      -1.01170674       3.43249848       0.77393838       0.00000000
Si       1.03226472       1.46808738      -3.21502992       0.00000000
Si      -2.06239056      -3.11282352      -0.75709046       0.00000000
Si       1.37261169      -2.63331108       2.40928679       0.00000000
