10
Lattice="16.28999089631971 0.0 0.0 0.0 16.28999089631971 0.0 0.0 0.0 34.383488856416385" Properties=species:S:1:pos:R:3:initial_magmoms:R:1 pbc="T T T"
Si      -1.34343630      -1.34191350       1.34991716       0.00000000
Si      -1.52682912       1.13760111      -1.36475020       0.00000000
Si       1.35935163      -1.31510016      -1.40262020       0.00000000
Si       1.37150397       1.37429806       1.34094306       0.00000000
Si       0.26557587       2.13949475      -2.56255610       0.00000000
Si       2.21855139       0.64916175      -2.55750481       0.00000000
Si      -2.70798444      -2.69228934      -0.01373965       0.00000000
Si      -2.69900865       0.01404584       2.70469614       0.00000000
Si       0.01119123      -2.70040176       2.70517751       0.00000000
Si      -2.70444951       2.72839454      -0.02769935       0.00000000
