10
Lattice="16.28999089631971 0.0 0.0 0.0 16.28999089631971 0.0 0.0 0.0 34.383488856416385" Properties=species:S:1:pos:R:3:initial_magmoms:R:1 pbc="T T T"
Si      -1.35886293       1.35473830       1.36138062       0.00000000
Si       1.35464382       1.35405412      -1.37029282       0.00000000
Si       1.36008468      -1.36029458       1.36210267       0.00000000
Si      -1.38119652      -1.35278091      -1.38590637       0.00000000
Si       2.53226421      -0.23673931      -2.70734367       0.00000000
Si      -2.71481321       2.71117402       0.00385095       0.00000000
Si      -2.71767699      -2.70893970       0.00178794       0.00000000
Si       2.71738377       2.71257496       0.00206301       0.00000000
Si       0.00061902       2.71286818       2.71853207       0.00000000
Si       2.71565703      -2.71625391       0.00732369       0.00000000
