10
Lattice="16.28999089631971 0.0 0.0 0.0 16.28999089631971 0.0 0.0 0.0 34.383488856416385" Properties=species:S:1:pos:R:3:initial_magmoms:R:1 pbc="T T T"
Si      -1.30628695       1.34175159      -1.48474865       0.00000000
Si      -2.00309008      -0.80364697       1.12953262       0.00000000
Si       1.37253024      -1.38616108      -1.46136786       0.00000000
Si       1.67296671       0.85380907       1.62059789       0.00000000
Si      -2.56851581      -2.73738400      -0.09936834       0.00000000
Si      -3.49036775       1.09246898       0.94970688       0.00000000
Si      -2.45622738       2.89466263      -0.13667444       0.00000000
Si       2.75801103       2.63998477       0.08145453       0.00000000
Si       2.94187626      -2.52007540      -0.07014236       0.00000000
Si      -2.68479467      -0.02953668      -2.84303475       0.00000000
