10
Lattice="16.28999089631971 0.0 0.0 0.0 16.28999089631971 0.0 0.0 0.0 34.383488856416385" Properties=species:S:1:pos:R:3:initial_magmoms:R:1 pbc="T T T"
Si      -1.67296671      -0.85380907      -1.62059789       0.00000000
Si       1.08504432       1.78617569      -1.53914336       0.00000000
Si       2.04520950      -1.56277856      -0.33702715       0.00000000
Si      -0.87832422      -1.81473599       2.31046859       0.00000000
Si      -1.51993845       2.67631016       1.69593215       0.00000000
Si      -0.30043647      -2.23997015      -3.08196575       0.00000000
Si       2.43954153       0.48917241      -3.08127808       0.00000000
Si       1.26890955      -3.37388447      -1.69074024       0.00000000
Si      -3.67605679      -1.65745604      -0.49106526       0.00000000
Si       2.38503519       3.36611021      -0.13915006       0.00000000
