10
Lattice="16.28999089631971 0.0 0.0 0.0 16.28999089631971 0.0 0.0 0.0 34.383488856416385" Properties=species:S:1:pos:R:3:initial_magmoms:R:1 pbc="T T T"
Si       1.35449721      -1.29700328      -1.54213472       0.00000000
Si       1.29999087       1.57993452       1.39999330       0.00000000
Si      -1.36291914       1.39229001      -1.54168773       0.00000000
Si      -1.08504432      -1.78617569       1.53914336       0.00000000
Si       0.96016518      -3.34895426       1.20211621       0.00000000
Si       2.88202680      -2.45577614      -0.10834243       0.00000000
Si      -2.75801103      -2.63998477      -0.08145453       0.00000000
Si      -2.62554075       2.81655729      -0.13626184       0.00000000
Si       2.76820857       2.71901277      -0.11862310       0.00000000
Si      -0.01295055      -2.67055116      -2.92301079       0.00000000
