10
Lattice="16.28999089631971 0.0 0.0 0.0 16.28999089631971 0.0 0.0 0.0 34.383488856416385" Properties=species:S:1:pos:R:3:initial_magmoms:R:1 pbc="T T T"
Si       0.99618237       2.04889104      -0.45987942       0.00000000
Si       1.19509956      -1.34943916      -1.54368198       0.00000000
Si       0.04491153      -0.67963509       2.29399889       0.00000000
Si      -2.08612998       0.59375421      -1.08438708       0.00000000
Si       0.57712212       2.06426880      -2.75827940       0.00000000
Si       0.58073850      -0.26725374      -3.51966780       0.00000000
Si       2.46835854      -0.62262009       2.51941717       0.00000000
Si       0.28439082      -3.43760444      -1.29732414       0.00000000
Si      -0.41560677      -2.94416405       2.26628578       0.00000000
Si      -3.63727192       0.68406597       0.69643796       0.00000000
