10
Lattice="16.28999089631971 0.0 0.0 0.0 16.28999089631971 0.0 0.0 0.0 34.383488856416385" Properties=species:S:1:pos:R:3:initial_magmoms:R:1 pbc="T T T"
Si      -1.47123135      -1.01722905      -1.52136162       0.00000000
Si       1.24204734      -1.46038221       1.46055641       0.00000000
Si      -1.46802222       1.25921700       1.45735187       0.00000000
Si       1.29604869       1.42576596      -1.54322953       0.00000000
Si       0.06271650      -1.92790521      -3.11115188       0.00000000
Si       2.70941796       2.66851377      -0.00424292       0.00000000
Si       2.60478729      -0.10186137       2.83291224       0.00000000
Si      -2.79630393      -2.64019686      -0.21142075       0.00000000
Si      -0.11414403       2.61423549       2.83043663       0.00000000
Si      -0.68000976       2.31531399      -3.04403527       0.00000000
