10
Lattice="16.28999089631971 0.0 0.0 0.0 16.28999089631971 0.0 0.0 0.0 34.383488856416385" Properties=species:S:1:pos:R:3:initial_magmoms:R:1 pbc="T T T"
Si       1.35648459       1.35728280      -1.35735775       0.00000000
Si       1.35759231      -1.35749457       1.35773597       0.00000000
Si      -1.35770634       1.35783666       1.35749528       0.00000000
Si      -1.35948195      -1.35812988      -1.35715145       0.00000000
Si       0.00140094      -2.71099320       2.71571262       0.00000000
Si      -2.71505104       2.71419093       0.00099712       0.00000000
Si      -2.71401988       0.00014661       2.71533440       0.00000000
Si       2.71544526       2.71423980       0.00017192       0.00000000
Si      -2.71498751      -2.71510643      -0.00003438       0.00000000
Si      -2.71543223      -0.00169416      -2.71468111       0.00000000
