10
Lattice="16.28999089631971 0.0 0.0 0.0 16.28999089631971 0.0 0.0 0.0 34.383488856416385" Properties=species:S:1:pos:R:3:initial_magmoms:R:1 pbc="T T T"
Si      -1.46859793      -0.36351135       1.77264176       0.00000000
Si       1.54535248       1.73221181       0.30793870       0.00000000
Si       1.10862572      -2.07325341       0.25650097       0.00000000
Si      -1.78231075       0.22374641      -1.70174296       0.00000000
Si      -0.04799360       3.36515399       1.00159159       0.00000000
Si      -2.29793812      -2.54390409       1.16178435       0.00000000
Si      -0.65859397      -3.57830280      -0.15331606       0.00000000
Si       3.19841281      -1.96046145      -0.97243438       0.00000000
Si       2.55679858       2.53058471      -1.58697082       0.00000000
Si      -0.46032838      -0.53613322       3.93484866       0.00000000
