10
Lattice="16.28999089631971 0.0 0.0 0.0 16.28999089631971 0.0 0.0 0.0 34.383488856416385" Properties=species:S:1:pos:R:3:initial_magmoms:R:1 pbc="T T T"
Si       1.37806884       1.33602435       1.36014281       0.00000000
Si       1.35949824      -1.35415512      -1.36110555       0.00000000
Si      -1.35715248       1.35933534      -1.36024596       0.00000000
Si      -1.35055503      -1.36712196       1.38359236       0.00000000
Si      -2.61317664       0.05714532       2.78901826       0.00000000
Si       0.09181044       2.83081104       2.56892942       0.00000000
Si       2.71047681      -2.71432125      -0.00281945       0.00000000
Si      -2.71313208      -2.71564074      -0.00426356       0.00000000
Si       2.71378368       2.71660185      -0.00051575       0.00000000
Si      -0.00013032      -2.71345788      -2.71767248       0.00000000
