10
Lattice="16.28999089631971 0.0 0.0 0.0 16.28999089631971 0.0 0.0 0.0 34.383488856416385" Properties=species:S:1:pos:R:3:initial_magmoms:R:1 pbc="T T T"
Si       1.08473481      -1.68482257       1.22797261       0.00000000
Si       0.70708374       0.55724832      -2.17382853       0.00000000
Si       0.33163182       2.27449125       0.73608214       0.00000000
Si      -2.00227625      -0.71135172      -1.25496366       0.00000000
Si      -1.85569883       1.60536321       0.49137471       0.00000000
Si      -1.47241808       0.94084524      -2.86665622       0.00000000
Si       1.95191667      -1.37176461      -2.51790430       0.00000000
Si      -0.25758563      -1.67181012       3.15021701       0.00000000
Si       3.15068148      -0.64772298       1.89267459       0.00000000
Si       0.90399726       2.22079941       2.98978356       0.00000000
