10
Lattice="16.28999089631971 0.0 0.0 0.0 16.28999089631971 0.0 0.0 0.0 34.383488856416385" Properties=species:S:1:pos:R:3:initial_magmoms:R:1 pbc="T T T"
Si       1.32282945       0.15152958      -1.90625607       0.00000000
Si      -2.10992967       0.84582567      -0.70396794       0.00000000
Si       0.52101936       1.92083535       1.40865794       0.00000000
Si       0.21809052      -2.54335770       0.18642738       0.00000000
Si      -3.28916277      -1.08317097      -0.18862793       0.00000000
Si       0.09589923      -1.17116955      -3.47043062       0.00000000
Si       1.87587495       2.44266921      -1.98564759       0.00000000
Si      -2.04432984      -3.01218390      -0.53270369       0.00000000
Si       3.37141098      -0.81032976      -1.23436794       0.00000000
Si       2.16109656      -0.75116448       2.92851215       0.00000000
