10
Lattice="16.28999089631971 0.0 0.0 0.0 16.28999089631971 0.0 0.0 0.0 34.383488856416385" Properties=species:S:1:pos:R:3:initial_magmoms:R:1 pbc="T T T"
Si      -1.30693041      -1.37583711       1.32392529       0.00000000
Si      -1.24657596       0.29872602      -2.00382550       0.00000000
Si       1.57089357       1.43998454       1.25854505       0.00000000
Si      -0.78605766       2.56325498      -1.97611240       0.00000000
Si      -2.34256716       0.32394294       2.57998234       0.00000000
Si       0.32394294      -0.66191157      -3.43593300       0.00000000
Si       1.63738935       2.62026998      -1.75069412       0.00000000
Si       0.38973825      -2.38990590       2.60955560       0.00000000
Si       2.18222469       0.69560322      -3.04241375       0.00000000
Si      -2.09590398      -3.25065321      -0.13068075       0.00000000
