10
Lattice="16.28999089631971 0.0 0.0 0.0 16.28999089631971 0.0 0.0 0.0 34.383488856416385" Properties=species:S:1:pos:R:3:initial_magmoms:R:1 pbc="T T T"
Si       1.35519768       1.35711990      -1.35646378       0.00000000
Si      -1.35723393       1.35738054       1.35711706       0.00000000
Si       1.35816246      -1.35742941       1.35715145       0.00000000
Si      -1.35811359      -1.35949824      -1.35646378       0.00000000
Si       0.00057015       2.71560816      -2.71172413       0.00000000
Si      -2.71208952      -0.00097740      -2.71543755       0.00000000
Si       0.00055386       2.71365336       2.71468111       0.00000000
Si      -2.71502172       0.00211770       2.71344331       0.00000000
Si      -2.71440270       2.71503801       0.00013753       0.00000000
Si      -2.71476108      -2.71484253       0.00020630       0.00000000
