10
Lattice="16.28999089631971 0.0 0.0 0.0 16.28999089631971 0.0 0.0 0.0 34.383488856416385" Properties=species:S:1:pos:R:3:initial_magmoms:R:1 pbc="T T T"
Si      -1.35663561       1.35778779      -1.35708268       0.00000000
Si      -1.35767817      -1.35672079       1.35725460       0.00000000
Si       1.35743381      -1.35795395      -1.35783912       0.00000000
Si       1.35840144       1.35729909       1.35752967       0.00000000
Si       0.00034963       2.71601541      -2.71100208       0.00000000
Si       2.71293937      -0.00097740      -2.71495618       0.00000000
Si       2.71471498       2.71498914      -0.00030945       0.00000000
Si      -2.71411389       0.00107514      -2.71595330       0.00000000
Si       2.71701187      -0.00252495       2.71334016       0.00000000
Si      -2.71520532       2.71536381       0.00017192       0.00000000
