10
Lattice="16.28999089631971 0.0 0.0 0.0 16.28999089631971 0.0 0.0 0.0 34.383488856416385" Properties=species:S:1:pos:R:3:initial_magmoms:R:1 pbc="T T T"
Si      -0.43039809       1.78561206       1.46319019       0.00000000
Si       2.25479664      -0.50562531       0.47438926       0.00000000
Si      -1.71347994      -1.36080144       0.90593667       0.00000000
Si      -0.68121522       0.10728594      -2.30909325       0.00000000
Si      -3.54252277       0.14748966       0.63712640       0.00000000
Si      -1.85126076      -2.05703604      -2.53399578       0.00000000
Si      -1.84174740      -3.24822600      -0.44574780       0.00000000
Si      -2.72518668       2.07169704       1.67987505       0.00000000
Si       2.41740342      -1.34035749       2.67981624       0.00000000
Si       0.44012322       1.31841486       3.59469262       0.00000000
