10
Lattice="16.28999089631971 0.0 0.0 0.0 16.28999089631971 0.0 0.0 0.0 34.383488856416385" Properties=species:S:1:pos:R:3:initial_magmoms:R:1 pbc="T T T"
Si      -0.16260678       0.83473218      -2.20542697       0.00000000
Si      -1.78367355       0.39058533       1.53395145       0.00000000
Si       2.07298395       0.72914040       1.01077199       0.00000000
Si      -0.54900558      -2.35955763      -0.24690797       0.00000000
Si       1.76394636      -2.31233292       1.03604387       0.00000000
Si      -1.97728020       2.65877235       0.91487638       0.00000000
Si       0.68690043      -1.10542311      -3.28878255       0.00000000
Si       2.12625225      -0.81006912       2.85393432       0.00000000
Si       1.52580285       2.67592572       2.22169037       0.00000000
Si      -3.73673052      -0.53770032       0.49450361       0.00000000
