10
Lattice="16.28999089631971 0.0 0.0 0.0 16.28999089631971 0.0 0.0 0.0 34.383488856416385" Properties=species:S:1:pos:R:3:initial_magmoms:R:1 pbc="T T T"
Si      -1.00362690      -1.89548811      -1.04918662       0.00000000
Si      -1.25579610       1.39861053       1.48334924       0.00000000
Si      -0.06532290       1.37738466      -2.01953051       0.00000000
Si       1.46748465      -1.28619324       1.47751779       0.00000000
Si       0.94934862      -3.38582111      -1.04413534       0.00000000
Si      -2.17616481       0.58725450      -3.00117967       0.00000000
Si      -2.50628166       2.82230766       0.02087079       0.00000000
Si       2.89316916      -2.52376897       0.03662187       0.00000000
Si      -2.61091233       0.05193252       2.85802596       0.00000000
Si       0.10230120      -2.66068480       2.85431254       0.00000000
