10
Lattice="16.28999089631971 0.0 0.0 0.0 16.28999089631971 0.0 0.0 0.0 34.383488856416385" Properties=species:S:1:pos:R:3:initial_magmoms:R:1 pbc="T T T"
Si       1.35666378       1.35618322      -1.35842364       0.00000000
Si      -1.36264221       1.35502664       1.35625748       0.00000000
Si      -1.35874890      -1.35896894      -1.35838925       0.00000000
Si       1.35883035      -1.36300704       1.35986774       0.00000000
Si       2.71026504       0.02716032       2.71079578       0.00000000
Si      -0.00596214       2.71377554       2.71168975       0.00000000
Si      -2.71362078       2.71519276      -0.00202863       0.00000000
Si       2.71327869      -0.00166647      -2.71629714       0.00000000
Si       2.71614573       2.71359634      -0.00147849       0.00000000
Si      -0.00061902       2.71362892      -2.71622837       0.00000000
