10
Lattice="16.28999089631971 0.0 0.0 0.0 16.28999089631971 0.0 0.0 0.0 34.383488856416385" Properties=species:S:1:pos:R:3:initial_magmoms:R:1 pbc="T T T"
Si       0.66311703       1.69828463      -1.54457595       0.00000000
Si       1.64390535      -1.72135194      -0.50172415       0.00000000
Si      -1.91567142      -0.88730653      -1.50799190       0.00000000
Si       0.85058235       1.06696568       2.39859352       0.00000000
Si       1.97332173       0.28569402      -2.97321071       0.00000000
Si       2.10621555       3.05216282       0.00801136       0.00000000
Si      -1.81428246      -2.01654303       2.65447559       0.00000000
Si       3.16184013      -1.84461837       1.29783990       0.00000000
Si      -0.74515347      -2.45697576      -2.95223677       0.00000000
Si       3.49563852      -0.93104192      -1.73272251       0.00000000
