10
Lattice="16.28999089631971 0.0 0.0 0.0 16.28999089631971 0.0 0.0 0.0 34.383488856416385" Properties=species:S:1:pos:R:3:initial_magmoms:R:1 pbc="T T T"
Si      -1.26951228       1.94360877       0.41786277       0.00000000
Si      -0.05007546      -1.06050506       2.13511270       0.00000000
Si       2.21410422       0.88334154      -0.29102201       0.00000000
Si      -0.85058235      -1.06696568      -2.39859352       0.00000000
Si       1.25563320       1.98519714      -2.39058217       0.00000000
Si      -0.22786452       3.44957040      -1.17419680       0.00000000
Si      -0.33620931       2.62440045       2.58818419       0.00000000
Si      -0.76515759      -3.24223847       1.75465918       0.00000000
Si      -3.64413816       1.07020413      -0.07725974       0.00000000
Si       3.69761823      -0.91519989      -0.67793963       0.00000000
