10
Lattice="16.28999089631971 0.0 0.0 0.0 16.28999089631971 0.0 0.0 0.0 34.383488856416385" Properties=species:S:1:pos:R:3:initial_magmoms:R:1 pbc="T T T"
Si       1.35417141      -1.35128808       1.36358116       0.00000000
Si      -1.36436895       1.36374993       1.36224021       0.00000000
Si      -1.36357074      -1.36322865      -1.37151344       0.00000000
Si       1.37753127       1.36184400      -1.38537687       0.00000000
Si       2.70176166      -2.70440064       0.00158164       0.00000000
Si       2.69892720       2.72758131       0.00756437       0.00000000
Si      -2.71868697      -2.70990666       0.00316328       0.00000000
Si      -0.00522909      -2.70936909       2.71973549       0.00000000
Si       2.70920619       0.00573408       2.72021686       0.00000000
Si      -2.71928970       2.71974582       0.00144411       0.00000000
