10
Lattice="16.28999089631971 0.0 0.0 0.0 16.28999089631971 0.0 0.0 0.0 34.383488856416385" Properties=species:S:1:pos:R:3:initial_magmoms:R:1 pbc="T T T"
Si       0.00723276      -0.93659355       2.11884930       0.00000000
Si       2.34545049       0.62740935      -0.72442613       0.00000000
Si      -0.59124555      -2.26955538      -0.98336833       0.00000000
Si      -0.02309922       2.65175136       1.01806129       0.00000000
Si       2.29358313      -1.19342169       1.45755129       0.00000000
Si       0.95363289       1.75422123      -2.40182557       0.00000000
Si      -2.03696676      -1.03817799      -2.32889815       0.00000000
Si      -3.33642006       0.59774526       1.33775915       0.00000000
Si       0.12662217       3.57174540      -1.12351551       0.00000000
Si      -0.55298034       0.30933081      -3.78799670       0.00000000
