10
Lattice="16.28999089631971 0.0 0.0 0.0 16.28999089631971 0.0 0.0 0.0 34.383488856416385" Properties=species:S:1:pos:R:3:initial_magmoms:R:1 pbc="T T T"
Si      -1.34550513       1.35035955       1.35718583       0.00000000
Si       1.37440359       1.34773686      -1.35250280       0.00000000
Si      -1.32139593      -1.36573731      -1.39294124       0.00000000
Si       1.36907676      -1.36464588       1.35316296       0.00000000
Si       2.36938050      -0.37789542      -2.57147380       0.00000000
Si       0.72752769      -2.23946775      -2.69945610       0.00000000
Si      -2.70464499       2.70891297      -0.00801136       0.00000000
Si      -2.70379791      -0.00654858       2.71268687       0.00000000
Si       0.00961110       2.70778896       2.71292755       0.00000000
Si      -2.69892720      -2.72758131      -0.00756437       0.00000000
