10
Lattice="16.28999089631971 0.0 0.0 0.0 16.28999089631971 0.0 0.0 0.0 34.383488856416385" Properties=species:S:1:pos:R:3:initial_magmoms:R:1 pbc="T T T"
Si      -1.35492075       1.35599589      -1.36079610       0.00000000
Si      -1.35563751      -1.35912357       1.35756405       0.00000000
Si       1.35949824       1.35728280       1.35801103       0.00000000
Si       1.36436895      -1.36374993      -1.36224021       0.00000000
Si      -2.71472850       2.71239903       0.00144411       0.00000000
Si      -2.71368594      -0.00099369       2.71547193       0.00000000
Si       0.00154755       2.71446786       2.71505933       0.00000000
Si      -2.71459818      -2.71608057       0.00003438       0.00000000
Si       0.00104256      -2.71559187       2.71533440       0.00000000
Si       2.71779102       2.71419093       0.00251000       0.00000000
