10
Lattice="16.28999089631971 0.0 0.0 0.0 16.28999089631971 0.0 0.0 0.0 34.383488856416385" Properties=species:S:1:pos:R:3:initial_magmoms:R:1 pbc="T T T"
Si      -1.35708732      -1.35542574       1.35722021       0.00000000
Si       1.35681039      -1.35702216      -1.35749528       0.00000000
Si       1.35821133       1.35796698       1.35673884       0.00000000
Si      -1.35726651       1.35827649      -1.35746090       0.00000000
Si       0.00102627       2.71518462      -2.71296194       0.00000000
Si       0.00177561      -2.71404432      -2.71413098       0.00000000
Si       2.71451673      -2.71415835      -0.00010315       0.00000000
Si       2.71490769       2.71494027      -0.00020630       0.00000000
Si      -2.71572219      -2.71459818      -0.00013753       0.00000000
Si      -2.71521720       2.71546155      -0.00041260       0.00000000
