10
Lattice="16.28999089631971 0.0 0.0 0.0 16.28999089631971 0.0 0.0 0.0 34.383488856416385" Properties=species:S:1:pos:R:3:initial_magmoms:R:1 pbc="T T T"
Si       1.34550513      -1.35035955      -1.35718583       0.00000000
Si       1.35511623       1.35742941       1.35574172       0.00000000
Si      -1.35829278      -1.35690813       1.35550104       0.00000000
Si      -1.35913986       1.35855342      -1.36519719       0.00000000
Si       2.71388142      -0.00024435       2.71275564       0.00000000
Si       2.71248048       2.71458189      -0.00281945       0.00000000
Si      -0.00115659       2.71508688       2.71279002       0.00000000
Si      -0.00102627      -2.71518462       2.71296194       0.00000000
Si      -2.71624347       0.00027693       2.71254934       0.00000000
Si       2.71458189      -2.71500543      -0.00402287       0.00000000
