10
Lattice="16.28999089631971 0.0 0.0 0.0 16.28999089631971 0.0 0.0 0.0 34.383488856416385" Properties=species:S:1:pos:R:3:initial_magmoms:R:1 pbc="T T T"
Si      -1.34985456      -1.35078309       1.36750088       0.00000000
Si      -1.35402480       1.36132272      -1.35955829       0.00000000
Si       1.36060596      -1.35614250      -1.36055541       0.00000000
Si       1.35923760       1.37125962       1.37864114       0.00000000
Si       0.04331511      -2.66297517       2.74473230       0.00000000
Si      -2.71394658      -2.71391400      -0.00048137       0.00000000
Si      -2.71244790       2.71713942      -0.00481369       0.00000000
Si      -2.71282257       0.00135207      -2.71770686       0.00000000
Si       2.71441899       2.71614573      -0.00357588       0.00000000
Si       0.00239463      -2.71410948      -2.71729426       0.00000000
