10
Lattice="16.28999089631971 0.0 0.0 0.0 16.28999089631971 0.0 0.0 0.0 34.383488856416385" Properties=species:S:1:pos:R:3:initial_magmoms:R:1 pbc="T T T"
Si      -1.29760950       1.30570866       1.41244013       0.00000000
Si      -1.49632677      -1.11337263      -1.46817721       0.00000000
Si       1.39149017       1.24888914      -1.47261268       0.00000000
Si       1.42560143      -1.41279912       1.36977019       0.00000000
Si       0.25568947      -2.00424015      -2.95313216       0.00000000
Si      -2.60746767      -2.72403009      -0.05669153       0.00000000
Si      -3.00458529       2.28571506       0.17825786       0.00000000
Si      -2.63908656      -0.06809220       2.75519864       0.00000000
Si       0.06905005       2.65906557       2.74969728       0.00000000
Si       2.21361389      -0.35670213      -3.13161695       0.00000000
