10
Lattice="16.28999089631971 0.0 0.0 0.0 16.28999089631971 0.0 0.0 0.0 34.383488856416385" Properties=species:S:1:pos:R:3:initial_magmoms:R:1 pbc="T T T"
Si      -0.14972139      -0.91999404       2.14157680       0.00000000
Si       0.82701072      -1.81752417      -1.27831006       0.00000000
Si      -2.01491010       0.83865807      -0.93461252       0.00000000
Si      -0.72164700       2.18652525      -2.56758847       0.00000000
Si       2.11413249      -0.52755165      -2.71028002       0.00000000
Si       2.21882832      -2.94433605       0.39908938       0.00000000
Si      -0.12662217      -3.57174540       1.12351551       0.00000000
Si       0.77693526       3.09834171       2.09031099       0.00000000
Si      -3.65342346       1.64359584       0.86316359       0.00000000
Si      -2.15546022      -1.15098624       3.31460456       0.00000000
