10
Lattice="16.28999089631971 0.0 0.0 0.0 16.28999089631971 0.0 0.0 0.0 34.383488856416385" Properties=species:S:1:pos:R:3:initial_magmoms:R:1 pbc="T T T"
Si      -1.18949580      -1.91428677       0.55147709       0.00000000
Si       0.36230589       1.50226380       1.81789046       0.00000000
Si       1.99493856       0.15965829      -1.44610158       0.00000000
Si      -2.31295194      -0.04722471      -1.28295184       0.00000000
Si       0.30903759       3.04147332      -0.02527188       0.00000000
Si      -1.76394636       2.31233292      -1.03604387       0.00000000
Si      -0.52215966      -3.23046990      -1.39772399       0.00000000
Si       2.09644155       0.24299793       2.91561833       0.00000000
Si       3.21764967      -1.85559390      -1.14404246       0.00000000
Si      -0.55446273      -2.66955633       2.86885676       0.00000000
