10
Lattice="16.28999089631971 0.0 0.0 0.0 16.28999089631971 0.0 0.0 0.0 34.383488856416385" Properties=species:S:1:pos:R:3:initial_magmoms:R:1 pbc="T T T"
Si      -1.35462753       1.35848826      -1.35526035       0.00000000
Si      -1.35519768      -1.35711990       1.35646378       0.00000000
Si       1.35988920       1.35842310       1.35646378       0.00000000
Si       1.36006839      -1.35627282      -1.36413130       0.00000000
Si      -0.01119123       2.70040176      -2.70517751       0.00000000
Si      -2.71019988       2.71444759      -0.00048137       0.00000000
Si      -2.71243161       0.00026064       2.71358084       0.00000000
Si       0.00296478      -2.71454931       2.71361522       0.00000000
Si       0.00242721       2.71525684       2.71389029       0.00000000
Si      -2.71331127      -2.71661814       0.00000000       0.00000000
