10
Lattice="16.28999089631971 0.0 0.0 0.0 16.28999089631971 0.0 0.0 0.0 34.383488856416385" Properties=species:S:1:pos:R:3:initial_magmoms:R:1 pbc="T T T"
Si       2.22941682      -0.59647464      -0.53177534       0.00000000
Si      -0.74205837       0.75207672       2.14649364       0.00000000
Si      -1.52285436       1.41050223      -1.23027630       0.00000000
Si      -0.65117646      -2.27848230      -0.47342652       0.00000000
Si      -2.68822467      -0.72495387       2.21422915       0.00000000
Si      -1.72475262      -2.73913092       1.56159579       0.00000000
Si      -2.62995534      -0.17604603      -2.59014405       0.00000000
Si      -1.44751311      -2.16153639      -2.71364961       0.00000000
Si      -1.59901011       3.00873042       1.93596342       0.00000000
Si       2.28390687      -2.18067714      -2.32594117       0.00000000
