10
Lattice="16.28999089631971 0.0 0.0 0.0 16.28999089631971 0.0 0.0 0.0 34.383488856416385" Properties=species:S:1:pos:R:3:initial_magmoms:R:1 pbc="T T T"
Si       0.74205837      -0.75207672      -2.14649364       0.00000000
Si       1.26618912      -0.24869943       2.04605941       0.00000000
Si      -0.85695174       2.25665370      -0.21053022       0.00000000
Si      -1.94616630      -1.47703059       0.06773551       0.00000000
Si      -0.78079599       0.65842551      -3.37676994       0.00000000
Si      -2.38847238       1.88403624      -1.92571714       0.00000000
Si      -2.10948984      -1.67425362       2.40014078       0.00000000
Si      -0.98269425      -3.49120764      -0.58489786       0.00000000
Si       0.20426031      -2.16370296       2.98039686       0.00000000
Si       0.63739512       1.64683755       3.44371463       0.00000000
