10
Lattice="16.28999089631971 0.0 0.0 0.0 16.28999089631971 0.0 0.0 0.0 34.383488856416385" Properties=species:S:1:pos:R:3:initial_magmoms:R:1 pbc="T T T"
Si      -1.64480130       1.34036142      -0.91329474       0.00000000
Si       0.54718110      -1.94678532      -1.21091839       0.00000000
Si       1.70183259       1.68005516      -0.19251326       0.00000000
Si      -0.62367894      -1.82467548       1.84089302       0.00000000
Si       1.48924809       1.59630338       2.19490944       0.00000000
Si       0.63004833      -0.36795852       3.34979406       0.00000000
Si       2.51204832      -1.05547797      -2.26164401       0.00000000
Si       0.60044940      -3.48599484       0.63224395       0.00000000
Si      -3.50308305      -0.01715337      -1.30681399       0.00000000
Si      -1.52580285      -2.67592572      -2.22169037       0.00000000
