10
Lattice="16.28999089631971 0.0 0.0 0.0 16.28999089631971 0.0 0.0 0.0 34.383488856416385" Properties=species:S:1:pos:R:3:initial_magmoms:R:1 pbc="T T T"
Si       1.26397368      -1.98193914       0.12257721       0.00000000
Si      -0.60406578       0.59522031      -2.20525506       0.00000000
Si      -1.96486722      -0.89130735       1.05072562       0.00000000
Si       1.16393679       1.94170284       0.87722644       0.00000000
Si      -0.81021573       2.73553313       2.06913075       0.00000000
Si      -2.51204832       1.05547797       2.26164401       0.00000000
Si       2.62687653      -1.42016220       2.08804168       0.00000000
Si       0.47444625       2.65623830      -2.60162814       0.00000000
Si      -0.27896625      -3.77312238      -0.37010408       0.00000000
Si       0.02472822      -1.30031667      -3.60291028       0.00000000
