10
Lattice="16.28999089631971 0.0 0.0 0.0 16.28999089631971 0.0 0.0 0.0 34.383488856416385" Properties=species:S:1:pos:R:3:initial_magmoms:R:1 pbc="T T T"
Si      -1.42568451       1.23757574       1.44089592       0.00000000
Si      -1.94382054      -0.86205214      -1.08075721       0.00000000
Si       1.27664730      -1.49568168       1.44149419       0.00000000
Si       1.54769661       1.21301042      -1.53964333       0.00000000
Si       2.68003080       2.62554890       0.01938198       0.00000000
Si      -0.08363286       2.58120751       2.81982244       0.00000000
Si      -2.89316916       2.52376897      -0.03662187       0.00000000
Si       2.64126060      -0.14067881       2.81954737       0.00000000
Si       3.45968649      -0.26744759      -1.82399494       0.00000000
Si      -1.73123604      -0.77830036      -3.46817992       0.00000000
