10
Lattice="16.28999089631971 0.0 0.0 0.0 16.28999089631971 0.0 0.0 0.0 34.383488856416385" Properties=species:S:1:pos:R:3:initial_magmoms:R:1 pbc="T T T"
Si       1.35883035       1.33393923      -1.38548346       0.00000000
Si       1.59135611      -1.17387369       1.32280232       0.00000000
Si      -1.35436689      -1.38391695      -1.38816537       0.00000000
Si      -1.29608127       1.48682088       1.55705716       0.00000000
Si      -2.69998605       2.68636761      -0.00715177       0.00000000
Si       2.72541052       2.69381214      -0.00130657       0.00000000
Si      -2.71337643      -2.71132715      -0.03262995       0.00000000
Si       0.00630423       2.69161299      -2.74541997       0.00000000
Si      -2.70749574      -0.02489112      -2.74490422       0.00000000
Si       2.72148789      -0.02495628      -2.74442285       0.00000000
