10
Lattice="16.28999089631971 0.0 0.0 0.0 16.28999089631971 0.0 0.0 0.0 34.383488856416385" Properties=species:S:1:pos:R:3:initial_magmoms:R:1 pbc="T T T"
Si      -0.14514390      -1.00232859       2.09440263       0.00000000
Si       2.06995401      -0.94931930      -0.55078942       0.00000000
Si      -0.19479582       2.35113081       0.09661766       0.00000000
Si      -1.99145250      -0.50736671      -1.21212181       0.00000000
Si      -2.43411696      -0.77074832       2.25648648       0.00000000
Si       1.16538660       2.77159200      -1.80355253       0.00000000
Si       1.24061382      -3.12971203      -1.16164682       0.00000000
Si      -3.55175757       0.22466679       0.41782839       0.00000000
Si       3.07822356      -1.12194117       1.61141749       0.00000000
Si       0.89156799       0.43115883       3.64475501       0.00000000
