10
Lattice="16.28999089631971 0.0 0.0 0.0 16.28999089631971 0.0 0.0 0.0 34.383488856416385" Properties=species:S:1:pos:R:3:initial_magmoms:R:1 pbc="T T T"
Si       1.48351401      -1.79854143      -0.38691762       0.00000000
Si      -2.21410422      -0.88334154       0.29102201       0.00000000
Si       0.89265942       1.33511211       1.83470399       0.00000000
Si      -0.95847102       1.10185560      -2.09956015       0.00000000
Si      -2.44196874       2.56622886      -0.88317479       0.00000000
Si      -3.48361650       1.06026723       0.70888479       0.00000000
Si      -2.26417968      -1.94384660       2.42613471       0.00000000
Si      -0.46752300       0.91465092       3.73487418       0.00000000
Si       0.09715356      -3.79492559      -0.80973162       0.00000000
Si      -0.27272718      -1.43647989       3.63825652       0.00000000
