10
Lattice="16.28999089631971 0.0 0.0 0.0 16.28999089631971 0.0 0.0 0.0 34.383488856416385" Properties=species:S:1:pos:R:3:initial_magmoms:R:1 pbc="T T T"
Si       1.21026555      -1.92178017      -0.26489055       0.00000000
Si      -1.97509734      -1.16295939      -0.38770844       0.00000000
Si       0.26484282       0.68365872       2.23630336       0.00000000
Si       0.60536898       1.35607734      -1.85987272       0.00000000
Si       3.35308473       0.94428243       0.45217751       0.00000000
Si       2.18035134       1.97501589       2.15646486       0.00000000
Si      -2.53332306      -2.04928200       1.64284402       0.00000000
Si      -3.50562429       0.45958977      -0.95232002       0.00000000
Si       3.20650731      -1.37243250      -1.29416086       0.00000000
Si      -1.72436166       1.72439424       2.83636435       0.00000000
