10
Lattice="16.28999089631971 0.0 0.0 0.0 16.28999089631971 0.0 0.0 0.0 34.383488856416385" Properties=species:S:1:pos:R:3:initial_magmoms:R:1 pbc="T T T"
Si      -1.38575772       1.31079114       1.43343470       0.00000000
Si      -1.13233419      -1.41253848      -1.55902531       0.00000000
Si       1.33017298      -1.40336721       1.41679652       0.00000000
Si       1.11114090       1.61065746      -1.41148568       0.00000000
Si       0.77965569      -2.89299649      -1.84337693       0.00000000
Si      -1.05306705       2.69140122      -2.01027447       0.00000000
Si      -1.62862533       0.68018895      -3.24804638       0.00000000
Si       2.70478738      -2.58818289      -0.24231090       0.00000000
Si      -2.68003080      -2.62554890      -0.01938198       0.00000000
Si      -2.03897043       3.14817282       0.10696709       0.00000000
