10
Lattice="16.28999089631971 0.0 0.0 0.0 16.28999089631971 0.0 0.0 0.0 34.383488856416385" Properties=species:S:1:pos:R:3:initial_magmoms:R:1 pbc="T T T"
Si       1.35628865       1.35588186      -1.35639501       0.00000000
Si       1.35252612      -1.35767376       1.35993651       0.00000000
Si      -1.35588186       1.35472527       1.35993651       0.00000000
Si      -1.35842310      -1.35850455      -1.35636063       0.00000000
Si       0.01181025       2.70462870       2.71681289       0.00000000
Si      -0.00043983       2.71332756      -2.71371837       0.00000000
Si       2.71415250      -0.00252495      -2.71334016       0.00000000
Si      -2.71472850       2.71362078       0.00048137       0.00000000
Si       2.71510221       2.71450044       0.00113466       0.00000000
Si       0.00014661      -2.71608057      -2.71361522       0.00000000
