10
Lattice="16.28999089631971 0.0 0.0 0.0 16.28999089631971 0.0 0.0 0.0 34.383488856416385" Properties=species:S:1:pos:R:3:initial_magmoms:R:1 pbc="T T T"
Si       1.41343769       1.75179402      -0.70771575       0.00000000
Si       0.75040374      -1.96455771      -1.29471100       0.00000000
Si      -1.98601557       0.85493178      -1.24798381       0.00000000
Si       0.13828907       0.31439700       2.54647699       0.00000000
Si       2.04141719      -2.69379585       0.52871520       0.00000000
Si      -0.68161253       2.02168674      -2.80510974       0.00000000
Si       2.02085921      -0.76737303      -2.84262215       0.00000000
Si      -0.56337499      -1.85922657       3.11727761       0.00000000
Si       1.72628714       3.13437519       1.20091279       0.00000000
Si       3.34582265       0.82508850      -1.64641990       0.00000000
