10
Lattice="16.28999089631971 0.0 0.0 0.0 16.28999089631971 0.0 0.0 0.0 34.383488856416385" Properties=species:S:1:pos:R:3:initial_magmoms:R:1 pbc="T T T"
Si       1.30440304       1.16675496      -1.55712593       0.00000000
Si      -1.30046328       1.40616909       1.42461189       0.00000000
Si       1.98601557      -0.85493178       1.24798381       0.00000000
Si      -1.46926026      -1.52348967      -1.44225063       0.00000000
Si       3.39945326       0.89686224       0.54026806       0.00000000
Si      -2.69228088       2.53298097      -0.25278755       0.00000000
Si       2.30437430       2.95176429      -0.18604916       0.00000000
Si      -0.15506451       2.38593114      -3.02791487       0.00000000
Si      -1.35233064      -0.41466195       3.60658931       0.00000000
Si       2.73641931      -2.81948949      -0.04672719       0.00000000
