10
Lattice="16.28999089631971 0.0 0.0 0.0 16.28999089631971 0.0 0.0 0.0 34.383488856416385" Properties=species:S:1:pos:R:3:initial_magmoms:R:1 pbc="T T T"
Si       1.91550852       1.29135717      -0.07983851       0.00000000
Si      -1.98920448       1.04073552       0.60006098       0.00000000
Si      -0.26484282      -0.68365872      -2.23630336       0.00000000
Si       0.89464680      -1.40058162       1.68750819       0.00000000
Si       3.08824191       0.26062371      -1.78412585       0.00000000
Si      -3.54175551      -0.74259594       0.33321058       0.00000000
Si       0.94542273      -2.60543889      -2.50119391       0.00000000
Si       1.26917019       3.45605382      -0.71720559       0.00000000
Si       1.85455134       0.06125040       3.29799733       0.00000000
Si      -0.76826898      -2.87054235       2.46392219       0.00000000
