10
Lattice="16.28999089631971 0.0 0.0 0.0 16.28999089631971 0.0 0.0 0.0 34.383488856416385" Properties=species:S:1:pos:R:3:initial_magmoms:R:1 pbc="T T T"
Si       1.49632677       1.11337263       1.46817721       0.00000000
Si      -1.11114090      -1.61065746       1.41148568       0.00000000
Si       1.75201623      -0.89086752      -1.48495495       0.00000000
Si      -2.16420795       1.08074376      -0.59878879       0.00000000
Si      -2.73976623      -0.93046851      -1.83656070       0.00000000
Si       2.88781694       2.36226177      -0.00443547       0.00000000
Si       0.19871727       2.41908129       2.88061734       0.00000000
Si      -2.24347509      -3.02319594      -0.14753963       0.00000000
Si      -2.49689862      -0.29986632       2.84492038       0.00000000
Si      -3.15011133       1.53751536       1.51845278       0.00000000
