10
Lattice="16.28999089631971 0.0 0.0 0.0 16.28999089631971 0.0 0.0 0.0 34.383488856416385" Properties=species:S:1:pos:R:3:initial_magmoms:R:1 pbc="T T T"
Si       1.28761047      -1.31657409       1.46487498       0.00000000
Si       1.00325223       1.62626328      -1.39582056       0.00000000
Si      -1.42255683       1.39429368       1.43526046       0.00000000
Si      -1.09880937      -1.59112575      -1.55412223       0.00000000
Si       2.51916705       2.54107710       0.13412663       0.00000000
Si       2.28258738      -3.04220637       0.24590397       0.00000000
Si       2.64217284       0.04347801       2.81603682       0.00000000
Si      -2.63696004      -2.82734127      -0.19692123       0.00000000
Si      -0.08679312      -2.66431095       2.81737777       0.00000000
Si      -2.83294503      -0.33185988      -2.65185010       0.00000000
