10
Lattice="16.28999089631971 0.0 0.0 0.0 16.28999089631971 0.0 0.0 0.0 34.383488856416385" Properties=species:S:1:pos:R:3:initial_magmoms:R:1 pbc="T T T"
Si      -1.35669636      -1.35697329       1.35694515       0.00000000
Si       1.35759231      -1.35726651      -1.35725460       0.00000000
Si      -1.35876519       1.35767376      -1.35701391       0.00000000
Si       1.35736425       1.35907470       1.35718583       0.00000000
Si      -2.71388142       0.00024435      -2.71275564       0.00000000
Si       2.71432079      -2.71471221       0.00006877       0.00000000
Si       2.71411303      -0.00144981      -2.71502495       0.00000000
Si      -0.00288333       2.71531494       2.71392468       0.00000000
Si      -2.71490769      -2.71494027       0.00020630       0.00000000
Si       2.71477657       2.71518462       0.00020630       0.00000000
