10
Lattice="16.28999089631971 0.0 0.0 0.0 16.28999089631971 0.0 0.0 0.0 34.383488856416385" Properties=species:S:1:pos:R:3:initial_magmoms:R:1 pbc="T T T"
Si      -1.72568115       0.25013295      -1.56073620       0.00000000
Si      -0.05449005       1.58420250       1.79416583       0.00000000
Si       1.86139314      -0.34886664      -1.48571138       0.00000000
Si      -1.28853900      -1.70526978       1.18282706       0.00000000
Si       2.33655615      -2.24518554      -0.17277713       0.00000000
Si       2.62645299      -1.00237257       1.92000947       0.00000000
Si       0.90613125       0.05209542       3.30147006       0.00000000
Si      -2.93508333      -0.09780516       1.85251465       0.00000000
Si      -3.73141998       0.01914075      -0.38770844       0.00000000
Si      -1.69534917      -3.33821196      -0.45994819       0.00000000
