10
Lattice="16.28999089631971 0.0 0.0 0.0 16.28999089631971 0.0 0.0 0.0 34.383488856416385" Properties=species:S:1:pos:R:3:initial_magmoms:R:1 pbc="T T T"
Si       1.54179963       1.73020977      -0.00993683       0.00000000
Si       0.96062130      -1.53210708       1.50730423       0.00000000
Si      -2.22941682       0.59647464       0.53177534       0.00000000
Si       0.05449005      -1.58420250      -1.79416583       0.00000000
Si      -2.88059328      -1.68200766       0.05834881       0.00000000
Si      -1.23404895      -3.28947228      -0.61133877       0.00000000
Si       1.17051795       2.90219382      -1.99654716       0.00000000
Si       2.68094304      -2.58657507       0.12584364       0.00000000
Si       2.17645803      -0.53107029       3.25347068       0.00000000
Si       1.36821339       3.35530017       1.63335417       0.00000000
