10
Lattice="16.28999089631971 0.0 0.0 0.0 16.28999089631971 0.0 0.0 0.0 34.383488856416385" Properties=species:S:1:pos:R:3:initial_magmoms:R:1 pbc="T T T"
Si      -1.21583673      -1.00103679      -1.74616646       0.00000000
Si       1.88005401       1.34214939      -0.56543679       0.00000000
Si       0.87312771      -2.12560065       0.63526970       0.00000000
Si      -1.42729722       1.40115177       1.42794709       0.00000000
Si      -2.49108309      -2.49004053      -0.36477464       0.00000000
Si      -0.53058159       3.49531272       0.67556717       0.00000000
Si      -1.03123845      -3.23436321       1.34037230       0.00000000
Si       1.64733181       1.75650183      -2.87043840       0.00000000
Si       0.50448501      -2.05550478      -3.12762704       0.00000000
Si       1.79687889       3.22343262       0.83500349       0.00000000
