10
Lattice="16.28999089631971 0.0 0.0 0.0 16.28999089631971 0.0 0.0 0.0 34.383488856416385" Properties=species:S:1:pos:R:3:initial_magmoms:R:1 pbc="T T T"
Si       0.17358624      -1.62509040      -1.64329100       0.00000000
Si      -1.58345316       1.67427710      -0.37385188       0.00000000
Si       0.27766305      -0.39105774       2.29568368       0.00000000
Si       1.63991430       1.55466451      -0.85683702       0.00000000
Si      -0.54674127       3.10776452       1.17650050       0.00000000
Si       2.45557645      -2.12986863      -1.25032189       0.00000000
Si      -0.49264218       1.69169762       3.03840184       0.00000000
Si       0.63164475       1.72728639      -3.01904393       0.00000000
Si       2.60512353      -0.66293784       2.45512001       0.00000000
Si      -0.19769544      -0.45310635      -3.62990133       0.00000000
