10
Lattice="16.28999089631971 0.0 0.0 0.0 16.28999089631971 0.0 0.0 0.0 34.383488856416385" Properties=species:S:1:pos:R:3:initial_magmoms:R:1 pbc="T T T"
Si       1.51591482       0.91481382       1.52994718       0.00000000
Si      -1.00325223      -1.62626328       1.39582056       0.00000000
Si       0.70227819      -0.94776849      -2.06187583       0.00000000
Si       2.61079830       1.41784902      -0.44110603       0.00000000
Si       1.22782617      -3.12667002      -1.44032515       0.00000000
Si      -2.42580906      -0.23196960       2.83108102       0.00000000
Si       0.27306927       2.49054552       2.82888735       0.00000000
Si      -2.10206160      -3.21738903      -0.15830167       0.00000000
Si       3.13666884       0.13776453      -2.45680480       0.00000000
Si       0.28435824      -2.94283737       2.86069553       0.00000000
