10
Lattice="16.28999089631971 0.0 0.0 0.0 16.28999089631971 0.0 0.0 0.0 34.383488856416385" Properties=species:S:1:pos:R:3:initial_magmoms:R:1 pbc="T T T"
Si       2.17950182      -0.38359692       0.69282769       0.00000000
Si       0.07289042       0.14664258      -2.32563172       0.00000000
Si      -0.85947003       1.71426186       1.34002846       0.00000000
Si      -0.52985817      -1.65219696       1.61169256       0.00000000
Si       1.47241808      -0.94084524       2.86665622       0.00000000
Si      -0.38328075       0.66451797       3.35803093       0.00000000
Si      -3.13099650       1.07631288       1.04598070       0.00000000
Si      -2.25228132       0.13888854      -2.80734467       0.00000000
Si       3.35873492       1.54539972       0.17748767       0.00000000
Si      -3.61246374      -0.28157265      -0.90717448       0.00000000
