10
Lattice="16.28999089631971 0.0 0.0 0.0 16.28999089631971 0.0 0.0 0.0 34.383488856416385" Properties=species:S:1:pos:R:3:initial_magmoms:R:1 pbc="T T T"
Si       1.79657523       1.33143057       0.77699852       0.00000000
Si      -2.20281688       0.87068421      -0.26520000       0.00000000
Si      -0.70986933      -1.58389299       1.64404744       0.00000000
Si       0.84481569      -1.37213928      -1.78120325       0.00000000
Si       3.47576472      -0.29712960       0.33142263       0.00000000
Si      -0.33441741      -3.30113592      -1.26586323       0.00000000
Si      -3.37338926      -1.20327714      -0.61866246       0.00000000
Si       1.58987142       3.37054761      -0.47046954       0.00000000
Si       2.95474536      -2.21796495      -1.07723531       0.00000000
Si      -2.81190554       2.05117164       1.76115767       0.00000000
