10
Lattice="16.28999089631971 0.0 0.0 0.0 16.28999089631971 0.0 0.0 0.0 34.383488856416385" Properties=species:S:1:pos:R:3:initial_magmoms:R:1 pbc="T T T"
Si      -1.34483887      -1.34166069       1.36922006       0.00000000
Si       1.37013561       1.36997271       1.36640061       0.00000000
Si      -1.59609257       1.08274743      -1.39015961       0.00000000
Si       1.35971001      -1.32325299      -1.46727495       0.00000000
Si       0.23260491       1.87543512      -2.73377913       0.00000000
Si       2.18084004       0.52194789      -2.75908539       0.00000000
Si      -2.69137583       2.70010008       0.01385312       0.00000000
Si      -2.71149842      -2.69501760       0.03196291       0.00000000
Si       0.00918756      -2.70223407       2.72585575       0.00000000
Si       2.73416247      -2.69402391      -0.02153783       0.00000000
