10
Lattice="16.28999089631971 0.0 0.0 0.0 16.28999089631971 0.0 0.0 0.0 34.383488856416385" Properties=species:S:1:pos:R:3:initial_magmoms:R:1 pbc="T T T"
Si       1.59609257      -1.08274743       1.39015961       0.00000000
Si       1.82869748       0.79268769      -1.34361951       0.00000000
Si      -1.09528326       1.61735265       1.40401273       0.00000000
Si      -1.29286467      -1.68886575      -1.24653695       0.00000000
Si       0.67306859       0.21952404      -3.50328204       0.00000000
Si       0.25125370      -2.42440812       2.75937967       0.00000000
Si      -2.46279618       0.28792575       2.75807310       0.00000000
Si       2.61767105       2.66750379       0.11098653       0.00000000
Si      -2.58580197       2.78552484       0.07616291       0.00000000
Si       2.95580258      -2.40600042      -0.07711533       0.00000000
