10
Lattice="16.28999089631971 0.0 0.0 0.0 16.28999089631971 0.0 0.0 0.0 34.383488856416385" Properties=species:S:1:pos:R:3:initial_magmoms:R:1 pbc="T T T"
Si      -1.35628865      -1.35588186       1.35639501       0.00000000
Si      -1.35672848       1.35744570      -1.35732336       0.00000000
Si       1.35786386      -1.35840681      -1.35694515       0.00000000
Si       1.35881356       1.35861858       1.35752967       0.00000000
Si       0.00084321      -2.71373481      -2.71113961       0.00000000
Si       2.71434519      -0.00052128      -2.71340892       0.00000000
Si       2.71232523       0.00104256       2.71581577       0.00000000
Si      -0.00020776       2.71326240      -2.71509371       0.00000000
Si      -2.71217051      -0.00115659       2.71633152       0.00000000
Si      -2.71432079       2.71471221      -0.00006877       0.00000000
