10
Lattice="16.28999089631971 0.0 0.0 0.0 16.28999089631971 0.0 0.0 0.0 34.383488856416385" Properties=species:S:1:pos:R:3:initial_magmoms:R:1 pbc="T T T"
Si      -1.33880179      -1.34200441       1.36334048       0.00000000
Si       1.35681039      -1.35131577      -1.35543227       0.00000000
Si      -1.35861044       1.35982404      -1.35581049       0.00000000
Si       1.36257705       1.34851878       1.38785592       0.00000000
Si      -2.48874222       0.21090663       2.71141468       0.00000000
Si      -0.00151497      -2.71271129      -2.71351207       0.00000000
Si       2.71300176       0.00218286      -2.71340892       0.00000000
Si       2.71254564      -2.71432239       0.00653287       0.00000000
Si       2.71313208       2.71564074       0.00426356       0.00000000
Si      -2.71701187       0.00252495      -2.71334016       0.00000000
