10
Lattice="16.28999089631971 0.0 0.0 0.0 16.28999089631971 0.0 0.0 0.0 34.383488856416385" Properties=species:S:1:pos:R:3:initial_magmoms:R:1 pbc="T T T"
Si       1.33446051       1.37411037       1.34374188       0.00000000
Si      -1.35351167       1.35757602      -1.35828610       0.00000000
Si       1.36115982      -1.35834165      -1.35859555       0.00000000
Si      -1.34950758      -1.35472527       1.38469264       0.00000000
Si       2.81012274       0.11313405       2.57057983       0.00000000
Si      -2.71308028       2.71047681       0.00240685       0.00000000
Si       2.71134018       2.71639008      -0.00048137       0.00000000
Si      -2.71232523      -0.00104256      -2.71581577       0.00000000
Si       0.00340461       2.71379997      -2.71523125       0.00000000
Si      -2.71608776      -2.71459818       0.00051575       0.00000000
