10
Lattice="16.28999089631971 0.0 0.0 0.0 16.28999089631971 0.0 0.0 0.0 34.383488856416385" Properties=species:S:1:pos:R:3:initial_magmoms:R:1 pbc="T T T"
Si      -1.28389293       1.36940256       1.37819415       0.00000000
Si       1.31539469       1.36034532      -1.36832609       0.00000000
Si      -1.40112277      -1.35565380      -1.36550664       0.00000000
Si       1.59595736      -1.31307174       1.62379555       0.00000000
Si      -2.18526833      -0.36123075       2.67496816       0.00000000
Si      -0.28540732      -2.15259318       2.83134436       0.00000000
Si       2.64641801      -2.69202024      -0.02417161       0.00000000
Si       2.65715312       2.72062548       0.01619463       0.00000000
Si       2.67199331       0.00760743      -2.72771246       0.00000000
Si      -0.04155416      -2.70855459      -2.72619959       0.00000000
