10
Lattice="16.28999089631971 0.0 0.0 0.0 16.28999089631971 0.0 0.0 0.0 34.383488856416385" Properties=species:S:1:pos:R:3:initial_magmoms:R:1 pbc="T T T"
Si      -1.35741232      -1.35610992       1.35697953       0.00000000
Si       1.35707413      -1.35777150      -1.35718583       0.00000000
Si      -1.35751006       1.35801585      -1.35739213       0.00000000
Si       1.35996397       1.35891180       1.35673884       0.00000000
Si      -0.00185626       2.71269225      -2.71560947       0.00000000
Si      -2.71477657      -2.71518462      -0.00020630       0.00000000
Si       2.71527406      -2.71505430       0.00044699       0.00000000
Si       2.71530664      -0.00237834       2.71526563       0.00000000
Si       2.71553470       2.71510761      -0.00044699       0.00000000
Si      -2.71547704       2.71520080      -0.00013753       0.00000000
