10
Lattice="16.28999089631971 0.0 0.0 0.0 16.28999089631971 0.0 0.0 0.0 34.383488856416385" Properties=species:S:1:pos:R:3:initial_magmoms:R:1 pbc="T T T"
Si      -0.08317511       1.88128323       1.40044028       0.00000000
Si      -0.23272220       0.41435244      -2.30500161       0.00000000
Si       2.19694922      -0.74803680       0.46534640       0.00000000
Si      -1.88005401      -1.34214939       0.56543679       0.00000000
Si      -2.41063560       2.15316333       1.24100396       0.00000000
Si       1.69002071       3.11691231       0.45867600       0.00000000
Si       0.07684319      -1.65872925      -3.29799733       0.00000000
Si       3.36699476       1.41628518       0.69024892       0.00000000
Si      -2.51471241       0.91913067      -2.69797073       0.00000000
Si      -1.00692630      -3.46775004       1.20070649       0.00000000
