10
Lattice="16.28999089631971 0.0 0.0 0.0 16.28999089631971 0.0 0.0 0.0 34.385447050020396" Properties=species:S:1:pos:R:3:initial_magmoms:R:1 pbc="T T T"
Si      -0.24521337       2.36939583       0.50766702       0.00000000
Si      -1.40743971      -0.98595225      -1.73509063       0.00000000
Si       2.15334252      -0.49964688      -1.07616194       0.00000000
Si      -0.92489733      -0.54297828       2.22601193       0.00000000
Si       2.04621948       3.07713932       0.51237783       0.00000000
Si       3.23780040       1.64139573      -0.98418082       0.00000000
Si      -0.46157715      -3.12846192      -2.09613802       0.00000000
Si      -1.75785716      -2.75670783       1.97152509       0.00000000
Si      -3.12460282       0.75922803       2.28247287       0.00000000
Si      -0.18098190      -3.97045944       0.26387407       0.00000000
