10
Lattice="16.28999089631971 0.0 0.0 0.0 16.28999089631971 0.0 0.0 0.0 34.385447050020396" Properties=species:S:1:pos:R:3:initial_magmoms:R:1 pbc="T T T"
Si      -1.35654975      -1.35615866      -1.35791645       0.00000000
Si       1.35853713       1.35882221      -1.35726312       0.00000000
Si      -1.35703845       1.35878963       1.36056413       0.00000000
Si       1.36203948      -1.35624073       1.36434653       0.00000000
Si      -2.71367942       0.00158828      -2.71521396       0.00000000
Si       0.00125433      -2.71278903      -2.71652061       0.00000000
Si       2.71590138       0.00013521      -2.71476695       0.00000000
Si      -2.71597631      -2.71549317      -0.00030947       0.00000000
Si       0.00071676       2.71672402      -2.71517957       0.00000000
Si       2.71652040      -2.71547688      -0.00051578       0.00000000
