10
Lattice="16.28999089631971 0.0 0.0 0.0 16.28999089631971 0.0 0.0 0.0 34.385447050020396" Properties=species:S:1:pos:R:3:initial_magmoms:R:1 pbc="T T T"
Si      -1.58446314       1.56858039       0.68079785       0.00000000
Si      -1.29394728      -1.94313636       0.31500526       0.00000000
Si       1.57441221       0.35287398       1.75052970       0.00000000
Si       1.35373158       0.24555546      -1.94728334       0.00000000
Si      -0.38372724       2.88978084       2.20558696       0.00000000
Si       2.50100370       2.27615283      -1.38979178       0.00000000
Si       2.66967036      -1.74786813      -1.91633642       0.00000000
Si       3.38853177       1.40817276       0.64393663       0.00000000
Si      -1.20831075      -2.33314828       2.64977842       0.00000000
Si      -0.16337241       0.17557362      -3.80148522       0.00000000
