10
Lattice="16.28999089631971 0.0 0.0 0.0 16.28999089631971 0.0 0.0 0.0 34.385447050020396" Properties=species:S:1:pos:R:3:initial_magmoms:R:1 pbc="T T T"
Si      -1.64739141      -1.27776154      -1.03297379       0.00000000
Si       2.03797674      -0.53657631      -1.09001928       0.00000000
Si       0.05292621      -0.85682142       2.22793752       0.00000000
Si      -1.18737810       2.08629288      -0.28017278       0.00000000
Si      -0.84808998      -0.90966618      -3.26204603       0.00000000
Si      -1.58434911       0.62872884       3.13956500       0.00000000
Si      -1.34868168       2.76573249       1.92438262       0.00000000
Si      -3.70809759      -0.18645534      -0.50192465       0.00000000
Si       3.39428214       1.31064453      -0.90358128       0.00000000
Si      -0.00767259       3.50787231      -1.63444437       0.00000000
