10
Lattice="16.28999089631971 0.0 0.0 0.0 16.28999089631971 0.0 0.0 0.0 34.385447050020396" Properties=species:S:1:pos:R:3:initial_magmoms:R:1 pbc="T T T"
Si      -0.74767842       1.28001933      -1.81342072       0.00000000
Si       1.46577420      -1.57906789      -0.91895159       0.00000000
Si      -1.87170471      -1.47846411       0.00464204       0.00000000
Si       0.49353813       1.51824429       1.79316768       0.00000000
Si      -0.00420282       0.03117906       3.56811106       0.00000000
Si      -2.26215972       2.71679733      -0.72776839       0.00000000
Si      -0.76527162       3.40664625       1.08781861       0.00000000
Si       0.54529146      -3.66222725      -0.32900014       0.00000000
Si       1.38013767      -1.18905597      -3.25372475       0.00000000
Si      -1.42242651      -3.27602393      -1.44432713       0.00000000
