10
Lattice="16.28999089631971 0.0 0.0 0.0 16.28999089631971 0.0 0.0 0.0 34.385447050020396" Properties=species:S:1:pos:R:3:initial_magmoms:R:1 pbc="T T T"
Si      -1.21588560       1.34470692      -1.44998010       0.00000000
Si      -1.36008468      -1.34503272       1.35313687       0.00000000
Si       1.35415512       1.36853919       1.34918254       0.00000000
Si       1.11993750      -1.48102164      -1.46919469       0.00000000
Si       0.60701427       2.19641328      -2.73816423       0.00000000
Si       2.23497171       0.26824743      -2.82608787       0.00000000
Si      -2.20136544      -0.30926565      -2.87804431       0.00000000
Si      -0.00526167      -2.70122409       2.70617058       0.00000000
Si      -0.73634058      -2.32873695      -2.94378932       0.00000000
Si       2.71104696      -2.70278793      -0.04391368       0.00000000
