10
Lattice="16.28999089631971 0.0 0.0 0.0 16.28999089631971 0.0 0.0 0.0 34.385447050020396" Properties=species:S:1:pos:R:3:initial_magmoms:R:1 pbc="T T T"
Si       1.03366566      -1.68888204       1.25692633       0.00000000
Si       1.06093512       0.10386504      -2.10414984       0.00000000
Si      -2.20819095      -0.90200988      -0.32191674       0.00000000
Si       0.74899791       1.99459647       1.33628799       0.00000000
Si       0.24382872      -1.22342787       3.45446710       0.00000000
Si       3.13281135       1.09902114      -1.61831758       0.00000000
Si      -0.41137137       1.22360706      -3.47822745       0.00000000
Si      -3.46700070       0.98639208      -1.02726580       0.00000000
Si       1.13037939       1.03213440       3.46725849       0.00000000
Si       2.63663424       2.73188187       0.04600775       0.00000000
