10
Lattice="16.28999089631971 0.0 0.0 0.0 16.28999089631971 0.0 0.0 0.0 34.385447050020396" Properties=species:S:1:pos:R:3:initial_magmoms:R:1 pbc="T T T"
Si      -1.73920185      -0.77493159      -1.40124214       0.00000000
Si      -1.68089994       0.27188010       1.69891712       0.00000000
Si       0.89446761       1.89749178      -1.23832380       0.00000000
Si       1.89224640      -1.53644022       0.17574412       0.00000000
Si      -1.32994818       2.50576038       1.27026789       0.00000000
Si      -0.30387366      -2.01052809      -2.70692706       0.00000000
Si       1.32916626      -1.88981919       2.71242874       0.00000000
Si       1.03925313      -3.24700425      -1.26335642       0.00000000
Si       2.40171615       0.70793082      -2.66466732       0.00000000
Si      -2.72528442      -2.53083069      -0.19475928       0.00000000
