10
Lattice="16.28999089631971 0.0 0.0 0.0 16.28999089631971 0.0 0.0 0.0 34.385447050020396" Properties=species:S:1:pos:R:3:initial_magmoms:R:1 pbc="T T T"
Si      -1.99254393      -1.17410175      -0.41609853       0.00000000
Si       0.76918122      -1.97835534       1.18014359       0.00000000
Si      -0.76144347       1.49130063       1.85454574       0.00000000
Si       0.56308014       0.35337897      -2.53668462       0.00000000
Si       2.10294126      -1.54495989      -1.36417460       0.00000000
Si      -1.32916626       1.88981919      -2.71242874       0.00000000
Si      -3.00084606       1.55450583       1.23189371       0.00000000
Si       0.82999179      -3.50679717      -0.67068852       0.00000000
Si      -1.47149199      -3.34391346      -1.01230813       0.00000000
Si       2.61807993       2.36630169       1.40526524       0.00000000
