10
Lattice="16.28999089631971 0.0 0.0 0.0 16.28999089631971 0.0 0.0 0.0 34.385447050020396" Properties=species:S:1:pos:R:3:initial_magmoms:R:1 pbc="T T T"
Si      -0.74564217      -2.16213912       0.52066473       0.00000000
Si       2.13842088      -0.18042804       0.99459961       0.00000000
Si      -0.93012642       1.60070427       1.49391097       0.00000000
Si      -0.28991313       0.52486380      -2.34471056       0.00000000
Si       0.88220124       3.16675971       1.51873727       0.00000000
Si       0.45722772      -2.65499307       2.54741288       0.00000000
Si      -2.94168078       2.23979355       0.35248541       0.00000000
Si       0.94806171       2.48398065      -2.63241376       0.00000000
Si       1.76660163      -0.83738745       3.32400864       0.00000000
Si      -0.32351940      -3.69973593      -1.31551917       0.00000000
