10
Lattice="16.28999089631971 0.0 0.0 0.0 16.28999089631971 0.0 0.0 0.0 34.385447050020396" Properties=species:S:1:pos:R:3:initial_magmoms:R:1 pbc="T T T"
Si       1.35697329      -1.35293337       1.35705681       0.00000000
Si      -1.35801585      -1.35575154      -1.35774452       0.00000000
Si       1.35682668       1.35919859      -1.35726312       0.00000000
Si      -1.35448092       1.35923615       1.36486231       0.00000000
Si       2.71303434      -2.71204065       0.00048140       0.00000000
Si      -0.00043983      -2.71331127      -2.71507642       0.00000000
Si      -2.71539639      -2.71404432      -0.00034385       0.00000000
Si       2.71443528       0.00211770      -2.71524834       0.00000000
Si      -0.00061902       2.71561209      -2.71425117       0.00000000
Si       2.71474479       2.71637283       0.00068771       0.00000000
