10
Lattice="16.28999089631971 0.0 0.0 0.0 16.28999089631971 0.0 0.0 0.0 34.385447050020396" Properties=species:S:1:pos:R:3:initial_magmoms:R:1 pbc="T T T"
Si      -1.18674279      -1.91536191       0.76693344       0.00000000
Si      -1.18319157       1.69655463      -1.20342255       0.00000000
Si       0.85643046       1.63587438       1.56446994       0.00000000
Si       1.64017494      -0.96536169      -1.66631970       0.00000000
Si       1.94862609       3.09400857       0.00072209       0.00000000
Si       1.58258979       0.78278337      -3.23075525       0.00000000
Si      -0.77784750       1.22088663      -3.48077198       0.00000000
Si       2.11633164       0.40141818       3.17206446       0.00000000
Si      -0.18593406      -3.85721136      -0.41778342       0.00000000
Si      -0.60510834      -2.38759272       3.02719329       0.00000000
