10
Lattice="16.28999089631971 0.0 0.0 0.0 16.28999089631971 0.0 0.0 0.0 34.385447050020396" Properties=species:S:1:pos:R:3:initial_magmoms:R:1 pbc="T T T"
Si       0.40534407      -0.47566800      -2.27734943       0.00000000
Si       1.18319157      -1.69655463       1.20342255       0.00000000
Si       1.08445788       2.14104261       0.09198112       0.00000000
Si      -2.15334252       0.49964688       1.07616194       0.00000000
Si       2.03962203      -0.06068025       2.76789249       0.00000000
Si       2.76578136      -0.91377126      -2.02733271       0.00000000
Si       3.13181766       1.39745394       1.20414464       0.00000000
Si      -3.56078223      -0.48630537      -0.65892869       0.00000000
Si      -0.85965588      -2.43613692      -2.64589286       0.00000000
Si      -0.15788268       1.49068161      -3.45047838       0.00000000
