10
Lattice="16.28999089631971 0.0 0.0 0.0 16.28999089631971 0.0 0.0 0.0 34.385447050020396" Properties=species:S:1:pos:R:3:initial_magmoms:R:1 pbc="T T T"
Si      -1.66074921      -0.53054901      -1.53950610       0.00000000
Si       1.83962970       0.21392028      -1.48373287       0.00000000
Si      -0.05698242       2.01477978       1.25713265       0.00000000
Si       0.15032412      -1.98854636       1.30843576       0.00000000
Si       2.56767867      -1.80707739       1.24234690       0.00000000
Si       2.24849241       2.28812598       1.21494168       0.00000000
Si       2.68253946      -1.98360561      -1.08561794       0.00000000
Si       0.75943980       0.69357933      -3.49170656       0.00000000
Si      -3.32565237      -1.55443090      -0.30503347       0.00000000
Si      -2.61988812       1.45671696      -2.17192359       0.00000000
