10
Lattice="16.28999089631971 0.0 0.0 0.0 16.28999089631971 0.0 0.0 0.0 34.385447050020396" Properties=species:S:1:pos:R:3:initial_magmoms:R:1 pbc="T T T"
Si       1.54305396       0.04260812      -1.78732215       0.00000000
Si      -1.93792356       0.95645432      -1.02234868       0.00000000
Si       1.38784284       1.49570219       1.25757966       0.00000000
Si      -0.91828359      -1.92859332       1.08816247       0.00000000
Si       0.52474977       3.50315147       0.30854079       0.00000000
Si      -1.74026070       3.11228921      -0.07747046       0.00000000
Si       0.79736292      -1.78897173      -3.04583022       0.00000000
Si       0.88902675      -3.09611391       2.03833605       0.00000000
Si      -1.93292253       0.47672359      -3.40079138       0.00000000
Si       1.39272984       2.03115449      -3.09575791       0.00000000
