10
Lattice="16.28999089631971 0.0 0.0 0.0 16.28999089631971 0.0 0.0 0.0 34.385447050020396" Properties=species:S:1:pos:R:3:initial_magmoms:R:1 pbc="T T T"
Si      -1.08118359       0.73510254      -1.86850624       0.00000000
Si      -0.46167489      -0.98495856       2.01024313       0.00000000
Si       1.94189832       1.22872212       0.03497002       0.00000000
Si       2.48570739      -1.16043444      -0.26298005       0.00000000
Si       0.83649150      -2.70579181       0.61498406       0.00000000
Si      -0.19463292       2.99066481      -1.85571484       0.00000000
Si       0.57166497       0.59556240       3.49599928       0.00000000
Si       2.44211535       1.47261600       2.32582748       0.00000000
Si       2.05991937       2.35357920      -2.07746672       0.00000000
Si      -3.39099156       0.22258656      -1.66893299       0.00000000
