10
Lattice="16.28999089631971 0.0 0.0 0.0 16.28999089631971 0.0 0.0 0.0 34.385447050020396" Properties=species:S:1:pos:R:3:initial_magmoms:R:1 pbc="T T T"
Si      -1.39764942      -1.38901639      -1.40512769       0.00000000
Si       1.64921589       1.54535737      -0.87796411       0.00000000
Si       1.24667370      -1.23636280       1.72038744       0.00000000
Si      -1.29816639       1.72083325       1.39525906       0.00000000
Si      -0.83649150       2.70579181      -0.61498406       0.00000000
Si       2.24539731       0.50760129       2.92998700       0.00000000
Si      -2.48984505      -2.84715058       0.15862016       0.00000000
Si      -0.39196998      -2.29842193       3.05047711       0.00000000
Si      -0.30586104      -2.06544235      -3.51539814       0.00000000
Si      -2.94686100       0.50437098       2.79470769       0.00000000
