10
Lattice="16.28999089631971 0.0 0.0 0.0 16.28999089631971 0.0 0.0 0.0 34.385447050020396" Properties=species:S:1:pos:R:3:initial_magmoms:R:1 pbc="T T T"
Si       1.35873261      -1.35764118       1.36245533       0.00000000
Si      -1.35558864       1.36085031       1.36420899       0.00000000
Si      -1.35469269      -1.35651717      -1.38704438       0.00000000
Si       1.37033109       1.35900954      -1.38337545       0.00000000
Si       0.22783194      -2.57533497      -2.82162322       0.00000000
Si      -2.71158453       2.71480995       0.00605184       0.00000000
Si      -2.71104696      -2.71599912       0.00144419       0.00000000
Si       2.71270854       2.71523349       0.00048140       0.00000000
Si       2.71485882      -2.71726974       0.00165050       0.00000000
Si      -2.71407690       0.00084708       2.72085317       0.00000000
