10
Lattice="16.28999089631971 0.0 0.0 0.0 16.28999089631971 0.0 0.0 0.0 34.385447050020396" Properties=species:S:1:pos:R:3:initial_magmoms:R:1 pbc="T T T"
Si      -1.34874684      -1.35379674      -1.36534371       0.00000000
Si       1.36264221       1.36604682      -1.36506863       0.00000000
Si      -1.24524018       1.40585958       1.44381134       0.00000000
Si       1.35607734      -1.37544615       1.40189546       0.00000000
Si       0.63030897       2.24709147       2.55655942       0.00000000
Si       2.22187455       0.33588351       2.81936754       0.00000000
Si      -2.69922042      -2.71428867       0.01347910       0.00000000
Si       2.73414618      -2.69570178      -0.00371363       0.00000000
Si       0.00651600      -2.70604593      -2.72439488       0.00000000
Si      -2.70912474       0.00674406      -2.72360401       0.00000000
