10
Lattice="16.28999089631971 0.0 0.0 0.0 16.28999089631971 0.0 0.0 0.0 34.385447050020396" Properties=species:S:1:pos:R:3:initial_magmoms:R:1 pbc="T T T"
Si       1.35526284      -1.35224919      -1.35905117       0.00000000
Si       1.34874684       1.35379674       1.36534371       0.00000000
Si      -1.36037790       1.36054080      -1.35826030       0.00000000
Si      -1.35047358      -1.36049193       1.37882281       0.00000000
Si      -2.50310511       0.13786227       2.80925821       0.00000000
Si       2.70987408      -2.71261080       0.00024070       0.00000000
Si      -0.00280188      -2.71171485      -2.71566097       0.00000000
Si       2.71155195       0.00324171      -2.71600482       0.00000000
Si       2.71138905       2.71984356       0.00027508       0.00000000
Si      -2.72124450      -2.71192662       0.00426380       0.00000000
