10
Lattice="16.28999089631971 0.0 0.0 0.0 16.28999089631971 0.0 0.0 0.0 34.385447050020396" Properties=species:S:1:pos:R:3:initial_magmoms:R:1 pbc="T T T"
Si       1.15263153      -1.49835420      -1.43043540       0.00000000
Si      -1.43668026      -1.32799338       1.35358388       0.00000000
Si      -1.56387258       1.23248511      -1.42101378       0.00000000
Si       1.46147364       1.30979745       1.58104374       0.00000000
Si      -0.54626886       2.51568099       2.57364899       0.00000000
Si       2.60661177       2.62179405      -0.00010316       0.00000000
Si       2.50310511      -0.13786227      -2.80925821       0.00000000
Si      -1.81921833       0.55384371       3.26713508       0.00000000
Si      -0.21624975       2.58012423      -2.80815787       0.00000000
Si       2.52587853      -2.90761839       0.05525744       0.00000000
