10
Lattice="16.28999089631971 0.0 0.0 0.0 16.28999089631971 0.0 0.0 0.0 34.385447050020396" Properties=species:S:1:pos:R:3:initial_magmoms:R:1 pbc="T T T"
Si       1.14513813       1.31199660      -1.58114690       0.00000000
Si       2.04959151      -0.85444308       0.95987029       0.00000000
Si      -1.46147364      -1.30979745      -1.58104374       0.00000000
Si      -2.00774250       1.20588354       0.99260525       0.00000000
Si       3.02068728       2.15322849      -0.46839882       0.00000000
Si      -3.28069197      -0.75595374       1.68609134       0.00000000
Si       2.39037831      -0.09386298      -3.02495824       0.00000000
Si      -2.89815390      -2.63779083      -0.22745986       0.00000000
Si       3.25148400       1.45046160       1.81789083       0.00000000
Si      -0.31879530       2.63081871      -3.00222945       0.00000000
