10
Lattice="16.28999089631971 0.0 0.0 0.0 16.28999089631971 0.0 0.0 0.0 34.385447050020396" Properties=species:S:1:pos:R:3:initial_magmoms:R:1 pbc="T T T"
Si       1.93419315       0.36246879      -1.29530051       0.00000000
Si       0.88752807      -0.86798007       2.03372840       0.00000000
Si      -1.14727212      -2.03059737      -0.55749156       0.00000000
Si      -1.76063949       1.68580323       0.18960146       0.00000000
Si      -2.50100370      -2.27615283       1.38979178       0.00000000
Si      -1.73486871       2.28622005       2.43449101       0.00000000
Si      -0.92659149      -1.92327885       3.14032148       0.00000000
Si       0.61506153       2.79145440       2.51165200       0.00000000
Si      -0.95904117       3.62915136      -0.86905827       0.00000000
Si       1.56543642      -0.16472448      -3.52715797       0.00000000
