10
Lattice="16.28999089631971 0.0 0.0 0.0 16.28999089631971 0.0 0.0 0.0 34.385447050020396" Properties=species:S:1:pos:R:3:initial_magmoms:R:1 pbc="T T T"
Si      -2.07187623      -0.99515610      -0.48583225       0.00000000
Si       0.97686243      -1.85425812       1.11408911       0.00000000
Si      -0.49617711       1.63286073       1.66432534       0.00000000
Si       1.09177209       0.39799728      -2.11718193       0.00000000
Si       0.22807629      -1.35702216      -3.42156021       0.00000000
Si      -3.13281135      -1.09902114       1.61831758       0.00000000
Si      -1.58604327      -2.41232094      -2.31496713       0.00000000
Si      -0.04439025       2.30241231      -2.94363661       0.00000000
Si      -1.62095274       3.37680297       0.50017099       0.00000000
Si       3.28233726      -1.58091192       1.07189814       0.00000000
