10
Lattice="16.28999089631971 0.0 0.0 0.0 16.28999089631971 0.0 0.0 0.0 34.385447050020396" Properties=species:S:1:pos:R:3:initial_magmoms:R:1 pbc="T T T"
Si      -1.29990942       1.15602800      -1.61628884       0.00000000
Si       2.29143285       0.70774348       0.00471081       0.00000000
Si       0.24521337      -2.36939583      -0.50766702       0.00000000
Si      -1.54110731       0.38234748       1.87428300       0.00000000
Si      -0.67968396      -2.91237411       1.71834491       0.00000000
Si      -0.94649787       3.40989611      -0.64077316       0.00000000
Si      -2.26825381       2.53300540       1.20170328       0.00000000
Si      -2.87938945      -1.61016780       1.77480584       0.00000000
Si       2.92944699      -1.07771286       2.20290490       0.00000000
Si       3.48301377      -0.72800010      -1.49184784       0.00000000
