10
Lattice="16.28999089631971 0.0 0.0 0.0 16.28999089631971 0.0 0.0 0.0 34.385447050020396" Properties=species:S:1:pos:R:3:initial_magmoms:R:1 pbc="T T T"
Si      -1.47230649       1.11974202      -1.37407762       0.00000000
Si       2.07187623       0.99515610       0.48583225       0.00000000
Si      -1.06093512      -0.10386504       2.10414984       0.00000000
Si       0.48583296      -1.41716484      -1.82913488       0.00000000
Si       3.04873866      -0.85910202       1.59992136       0.00000000
Si       1.57569912       2.62801683       2.15015759       0.00000000
Si       2.29995252      -0.36186606      -2.93572795       0.00000000
Si      -0.32244426       2.79233406      -2.53496534       0.00000000
Si      -0.02726946      -1.79274708       3.36107617       0.00000000
Si       3.16364832       1.39315338      -1.63134968       0.00000000
