10
Lattice="16.28999089631971 0.0 0.0 0.0 16.28999089631971 0.0 0.0 0.0 34.385447050020396" Properties=species:S:1:pos:R:3:initial_magmoms:R:1 pbc="T T T"
Si       2.16787320       0.82202598      -0.03775524       0.00000000
Si      -0.08625555      -1.69306857      -1.60256904       0.00000000
Si      -2.25455229       0.63708561       0.22175187       0.00000000
Si      -0.11802105      -1.12485708       2.11243673       0.00000000
Si      -3.14110296      -1.61847666       0.20896048       0.00000000
Si      -2.63593377       1.59954768      -1.90921863       0.00000000
Si       3.44401551      -1.17413433       0.28199521       0.00000000
Si      -2.35126602      -2.08393083      -1.98858029       0.00000000
Si      -2.05991937      -2.35357920       2.07746672       0.00000000
Si       0.77683752      -3.70051785      -0.65353017       0.00000000
