10
Lattice="16.28999089631971 0.0 0.0 0.0 16.28999089631971 0.0 0.0 0.0 34.385447050020396" Properties=species:S:1:pos:R:3:initial_magmoms:R:1 pbc="T T T"
Si      -1.35619137       1.35213516      -1.35554385       0.00000000
Si       1.35731538       1.35562122       1.35767575       0.00000000
Si      -1.35773892      -1.36031274       1.35719435       0.00000000
Si       1.35382932      -1.36086660      -1.36345251       0.00000000
Si       0.03345966       2.67832035      -2.69967173       0.00000000
Si      -2.70935280      -0.01259217      -2.71301329       0.00000000
Si      -2.71280628       2.71117728       0.00017193       0.00000000
Si      -0.00060273       2.71259451       2.71404485       0.00000000
Si       2.71596654       2.71205694       0.00075648       0.00000000
Si       2.71469592      -0.00332316       2.71414801       0.00000000
