10
Lattice="16.28999089631971 0.0 0.0 0.0 16.28999089631971 0.0 0.0 0.0 34.385447050020396" Properties=species:S:1:pos:R:3:initial_magmoms:R:1 pbc="T T T"
Si      -1.35627282       1.35865116      -1.35977326       0.00000000
Si       1.35897696      -1.35744570      -1.35936064       0.00000000
Si      -1.34762283      -1.34763912       1.38714409       0.00000000
Si       1.35892809       1.36049193       1.38697217       0.00000000
Si       0.21624975      -2.58012423       2.80815787       0.00000000
Si      -2.71417464       2.71494027      -0.00436695       0.00000000
Si      -2.71388142       0.00063531      -2.71683008       0.00000000
Si       2.71655298       2.71471221       0.00268207       0.00000000
Si      -2.71311579      -2.71824714      -0.00034385       0.00000000
Si       0.00120546      -2.71453302      -2.71689885       0.00000000
