10
Lattice="16.28999089631971 0.0 0.0 0.0 16.28999089631971 0.0 0.0 0.0 34.385447050020396" Properties=species:S:1:pos:R:3:initial_magmoms:R:1 pbc="T T T"
Si      -0.12424383       1.63603728       1.62099965       0.00000000
Si       1.13616234      -1.90441503       0.82645468       0.00000000
Si      -2.34993024      -0.50523435      -0.07716099       0.00000000
Si       0.36479826       1.26882810      -2.07199943       0.00000000
Si      -1.73885976       2.93392674       0.58279927       0.00000000
Si      -2.37570102      -1.10565117      -2.32205054       0.00000000
Si       0.27246654      -3.65943447      -0.47792360       0.00000000
Si       0.04439025      -2.30241231       2.94363661       0.00000000
Si      -0.61506153      -2.79145440      -2.51165200       0.00000000
Si      -1.57410270       0.83769696      -3.38071027       0.00000000
