10
Lattice="16.28999089631971 0.0 0.0 0.0 16.28999089631971 0.0 0.0 0.0 34.385447050020396" Properties=species:S:1:pos:R:3:initial_magmoms:R:1 pbc="T T T"
Si       0.07208325       1.14639246      -1.96777708       0.00000000
Si      -0.93229299       1.46574162       1.49353273       0.00000000
Si       1.61461593      -1.29788946       1.03820038       0.00000000
Si      -1.80415008      -1.49881032      -0.03084376       0.00000000
Si       0.16229727      -1.85953608       2.86100834       0.00000000
Si       1.73885976      -2.93392674      -0.58279927       0.00000000
Si       0.01694160       0.49417344       3.43975012       0.00000000
Si      -0.61107048      -3.43916109      -0.65996025       0.00000000
Si      -3.06036972       1.84837743       0.49329390       0.00000000
Si      -0.02238246       3.41366724      -1.29911730       0.00000000
