10
Lattice="16.28999089631971 0.0 0.0 0.0 16.28999089631971 0.0 0.0 0.0 34.385447050020396" Properties=species:S:1:pos:R:3:initial_magmoms:R:1 pbc="T T T"
Si      -1.29251376       1.30495932       1.57090003       0.00000000
Si      -1.77002253      -1.06355781      -1.27547527       0.00000000
Si       0.75860901       1.92674862      -1.33069833       0.00000000
Si       1.38393324      -1.35883035       1.53573745       0.00000000
Si      -3.42213804       0.88223382      -1.02978592       0.00000000
Si      -2.58416415       2.66541867       0.25447652       0.00000000
Si       2.77845498       2.61361647      -0.10149902       0.00000000
Si       3.06370917      -2.35066329       0.18395193       0.00000000
Si      -2.73080673      -2.74095540       0.11943104       0.00000000
Si      -2.68216479      -0.02122587       2.91502790       0.00000000
