10
Lattice="16.28999089631971 0.0 0.0 0.0 16.28999089631971 0.0 0.0 0.0 34.385447050020396" Properties=species:S:1:pos:R:3:initial_magmoms:R:1 pbc="T T T"
Si      -1.08618462       1.58902434       1.33754306       0.00000000
Si       1.65275082      -1.13103099       1.29747711       0.00000000
Si      -1.80196722      -1.93355784       0.14110764       0.00000000
Si       0.89971299       1.96413417      -1.60666576       0.00000000
Si      -2.45054868       0.24109200       2.69266741       0.00000000
Si       0.28300617      -2.49336043       2.68891939       0.00000000
Si      -2.27183598       3.04380279      -0.07360209       0.00000000
Si       2.75599107       2.81184948      -0.13207114       0.00000000
Si      -2.27467858      -2.46516896      -2.17354456       0.00000000
Si       0.27596889       2.94783840       2.69026043       0.00000000
