10
Lattice="16.28999089631971 0.0 0.0 0.0 16.28999089631971 0.0 0.0 0.0 34.385447050020396" Properties=species:S:1:pos:R:3:initial_magmoms:R:1 pbc="T T T"
Si      -1.35461124      -1.33442793      -1.36943558       0.00000000
Si       1.36156707       1.37901366      -1.36685667       0.00000000
Si      -1.32770016       1.32642954       1.45285472       0.00000000
Si       1.29085218      -1.44933759       1.46598997       0.00000000
Si       2.30562144       0.38670831       2.62883767       0.00000000
Si       0.52618329       2.12979111       2.78494768       0.00000000
Si      -2.71639008      -2.68928352       0.00175366       0.00000000
Si       2.72020194      -2.69389359       0.00945600       0.00000000
Si       0.00144981      -2.69353521      -2.72601099       0.00000000
Si      -2.71158453       0.01850544      -2.72649239       0.00000000
