10
Lattice="16.28999089631971 0.0 0.0 0.0 16.28999089631971 0.0 0.0 0.0 34.385447050020396" Properties=species:S:1:pos:R:3:initial_magmoms:R:1 pbc="T T T"
Si       1.09455768      -0.84730806      -1.88232919       0.00000000
Si      -1.80731034       1.16752059      -0.95017359       0.00000000
Si      -1.01024064      -2.15907660       0.39343851       0.00000000
Si       1.89232785       0.06933024       1.66504743       0.00000000
Si       0.81164925      -2.96966700      -0.86544780       0.00000000
Si      -2.89909872       1.84394655       1.16009686       0.00000000
Si      -0.88902675       3.09611391      -2.03833605       0.00000000
Si      -3.26513502      -0.46727865      -2.07138049       0.00000000
Si      -3.20754987      -2.21542371      -0.50694493       0.00000000
Si       3.33137016      -0.33702381      -2.17522460       0.00000000
