10
Lattice="16.28999089631971 0.0 0.0 0.0 16.28999089631971 0.0 0.0 0.0 34.385447050020396" Properties=species:S:1:pos:R:3:initial_magmoms:R:1 pbc="T T T"
Si      -1.35314514       1.32152560      -1.40034811       0.00000000
Si      -1.76528214      -1.02834830       1.23643260       0.00000000
Si       1.36269108      -1.39811501      -1.39161421       0.00000000
Si       0.80762562       1.89797820       1.26765460       0.00000000
Si      -2.68475490       2.61964149       0.10387849       0.00000000
Si       1.63401732       1.02873891       3.26575966       0.00000000
Si       2.66444127       2.71047453       0.04012784       0.00000000
Si       0.00234576       2.67678681      -2.76039646       0.00000000
Si      -2.70933651      -0.03604295      -2.75926174       0.00000000
Si      -3.54472029       0.71473450       1.39254261       0.00000000
