10
Lattice="16.28999089631971 0.0 0.0 0.0 16.28999089631971 0.0 0.0 0.0 34.385447050020396" Properties=species:S:1:pos:R:3:initial_magmoms:R:1 pbc="T T T"
Si      -1.34799750      -1.32525666      -1.36536090       0.00000000
Si      -1.35270531       1.36291914       1.35526877       0.00000000
Si       1.36186029      -1.35169533       1.35918871       0.00000000
Si       1.36529538       1.37430585      -1.37893285       0.00000000
Si       0.07581366      -2.62005102      -2.69025699       0.00000000
Si      -2.42719371       0.25316289      -2.87910884       0.00000000
Si       2.70858295      -2.70133812       0.00522659       0.00000000
Si       0.00255753      -2.70958086       2.71431994       0.00000000
Si      -2.71256193       0.00495216       2.71342591       0.00000000
Si      -2.71420722      -2.71309950      -0.00553606       0.00000000
