10
Lattice="16.28999089631971 0.0 0.0 0.0 16.28999089631971 0.0 0.0 0.0 34.385447050020396" Properties=species:S:1:pos:R:3:initial_magmoms:R:1 pbc="T T T"
Si      -0.36875673      -0.52719327      -2.23185746       0.00000000
Si       2.11177044      -0.71457714       0.71624926       0.00000000
Si      -1.93419315      -0.36246879       1.29530051       0.00000000
Si       0.83313576       1.77771141      -1.37383692       0.00000000
Si       3.31535709      -0.00860112      -1.30499722       0.00000000
Si      -1.04666508      -1.23044886       3.32902892       0.00000000
Si       2.06099451      -3.03166674       1.34821975       0.00000000
Si       3.10125762       0.81309906       2.30537359       0.00000000
Si      -3.08146527      -2.39306616       0.73780895       0.00000000
Si      -0.22784823       3.84502644      -1.06202951       0.00000000
