10
Lattice="16.28999089631971 0.0 0.0 0.0 16.28999089631971 0.0 0.0 0.0 34.385447050020396" Properties=species:S:1:pos:R:3:initial_magmoms:R:1 pbc="T T T"
Si      -2.16787320      -0.82202598       0.03775524       0.00000000
Si       0.97181253       1.46618145      -1.51873727       0.00000000
Si       1.27614231      -1.99616031       0.31975045       0.00000000
Si      -0.32891139       2.08648836       1.89274799       0.00000000
Si       3.42892675      -0.98140734      -0.01743343       0.00000000
Si      -0.91828359       2.55111174      -2.36816145       0.00000000
Si       2.17834767       0.10252926       2.95914446       0.00000000
Si      -2.28589425      -1.94688306       2.15019198       0.00000000
Si      -2.25412875      -2.51509455      -1.56481380       0.00000000
Si       1.96928181       0.27797256      -3.24664134       0.00000000
