10
Lattice="16.28999089631971 0.0 0.0 0.0 16.28999089631971 0.0 0.0 0.0 34.385447050020396" Properties=species:S:1:pos:R:3:initial_magmoms:R:1 pbc="T T T"
Si      -1.10693808      -1.97693811      -0.50752948       0.00000000
Si      -0.99746928       1.18820889       1.72790407       0.00000000
Si       1.96684061      -0.94664448       0.91860773       0.00000000
Si      -0.21222612       1.39406562      -1.94924331       0.00000000
Si      -0.28761624      -2.09515464      -2.69066274       0.00000000
Si      -1.50930108       3.14778186      -0.85695459       0.00000000
Si       3.56839685       0.67681692       0.21738492       0.00000000
Si       1.45964494      -1.25937990       3.22920791       0.00000000
Si      -2.88756540       2.27313918       0.87847989       0.00000000
Si       0.72467694       2.44020942       2.80038676       0.00000000
