10
Lattice="16.28999089631971 0.0 0.0 0.0 16.28999089631971 0.0 0.0 0.0 34.385447050020396" Properties=species:S:1:pos:R:3:initial_magmoms:R:1 pbc="T T T"
Si       1.32212083       1.35630540       1.34584715       0.00000000
Si      -1.34369599      -1.34493498       1.36723491       0.00000000
Si       1.35595678      -1.35614250      -1.35330880       0.00000000
Si      -1.35610897       1.35713619      -1.35344634       0.00000000
Si       2.68823281       0.01246185       2.61391437       0.00000000
Si      -0.15058381       2.58255144       2.73096250       0.00000000
Si       0.00041045      -2.71477737      -2.71029684       0.00000000
Si       2.71546969       0.00009774      -2.70984983       0.00000000
Si      -2.71503706       0.00021177      -2.71039999       0.00000000
Si       0.00055368       2.71511946      -2.71067508       0.00000000
