10
Lattice="16.28999089631971 0.0 0.0 0.0 16.28999089631971 0.0 0.0 0.0 34.385447050020396" Properties=species:S:1:pos:R:3:initial_magmoms:R:1 pbc="T T T"
Si       1.35493704       1.35687555       1.35874170       0.00000000
Si       1.35270531      -1.36291914      -1.35526877       0.00000000
Si      -1.35985662      -1.35796698       1.35815715       0.00000000
Si      -1.36365219       1.35648459      -1.36197393       0.00000000
Si       0.00470781      -2.68817580      -2.72062967       0.00000000
Si       2.71277257      -0.00092853       2.71517957       0.00000000
Si       2.71342530       2.71461447       0.00020631       0.00000000
Si       2.71456560      -2.71461447       0.00391994       0.00000000
Si      -0.00278559       2.71402803       2.71562658       0.00000000
Si      -0.00281817      -2.71583622       2.71545466       0.00000000
