10
Lattice="16.28999089631971 0.0 0.0 0.0 16.28999089631971 0.0 0.0 0.0 34.385447050020396" Properties=species:S:1:pos:R:3:initial_magmoms:R:1 pbc="T T T"
Si       1.35185823       1.35998694      -1.37590005       0.00000000
Si      -1.35962856      -1.35894438      -1.37390569       0.00000000
Si      -1.42934976       1.24455600       1.45653397       0.00000000
Si       1.48444254      -1.32243849       1.36647843       0.00000000
Si      -2.72020194       2.69389359      -0.00945600       0.00000000
Si       2.71339272       2.71083519      -0.00866514       0.00000000
Si      -2.71725345      -2.71316466       0.01038441       0.00000000
Si       2.72484459      -2.71443528      -0.02898695       0.00000000
Si       2.71280628      -0.00156384      -2.73536384       0.00000000
Si      -0.00298107       2.71472850      -2.73639541       0.00000000
