10
Lattice="16.28999089631971 0.0 0.0 0.0 16.28999089631971 0.0 0.0 0.0 34.385447050020396" Properties=species:S:1:pos:R:3:initial_magmoms:R:1 pbc="T T T"
Si      -1.35778779       1.35457866      -1.35829469       0.00000000
Si       1.37028222       1.35736425       1.34842606       0.00000000
Si       1.35909099      -1.35967743      -1.35932625       0.00000000
Si      -1.36264221      -1.36604682       1.36506863       0.00000000
Si       2.56461615      -0.13426218       2.72508259       0.00000000
Si      -2.60788239       0.03981276       2.80887997       0.00000000
Si      -2.71419093       2.71285515       0.00350732       0.00000000
Si       2.71917590       2.70827766      -0.00275084       0.00000000
Si       0.00019548       2.71326240      -2.71610798       0.00000000
Si      -2.71437012      -0.00175932      -2.71610798       0.00000000
