10
Lattice="16.28999089631971 0.0 0.0 0.0 16.28999089631971 0.0 0.0 0.0 34.385447050020396" Properties=species:S:1:pos:R:3:initial_magmoms:R:1 pbc="T T T"
Si       1.24040205      -1.39199679      -1.39546538       0.00000000
Si      -0.86221341      -1.86831639       1.17773661       0.00000000
Si       1.60262649       1.05736761       1.40928833       0.00000000
Si      -1.48444254       1.32243849      -1.36647843       0.00000000
Si       2.56036446       2.57693139      -0.07042143       0.00000000
Si       2.43473598      -2.88362322      -0.01880885       0.00000000
Si       2.58929573      -0.04108338      -2.74664227       0.00000000
Si      -0.13258431       2.68242543      -2.74237848       0.00000000
Si      -2.73776256      -2.70954828       0.06498853       0.00000000
Si      -2.91379230       2.56699449       0.09005554       0.00000000
