10
Lattice="16.28999089631971 0.0 0.0 0.0 16.28999089631971 0.0 0.0 0.0 34.385447050020396" Properties=species:S:1:pos:R:3:initial_magmoms:R:1 pbc="T T T"
Si      -0.19409535       1.27470879       1.93421686       0.00000000
Si       0.95773797       1.51956378      -1.47970977       0.00000000
Si      -1.60262649      -1.05736761      -1.40928833       0.00000000
Si       1.61526006      -1.37443617       1.09593358       0.00000000
Si      -2.24417556       0.59725656       2.79017427       0.00000000
Si       2.34597733       0.25919019      -2.81372832       0.00000000
Si       2.32320228       2.84716620      -0.20091428       0.00000000
Si      -0.36222444      -2.44936440      -2.80475371       0.00000000
Si      -2.46483990      -2.92568400      -0.23155173       0.00000000
Si       1.03232241       3.33570330       1.73598465       0.00000000
