10
Lattice="16.28999089631971 0.0 0.0 0.0 16.28999089631971 0.0 0.0 0.0 34.385447050020396" Properties=species:S:1:pos:R:3:initial_magmoms:R:1 pbc="T T T"
Si      -1.72214622      -1.25200053      -1.07248269       0.00000000
Si       1.29359120       1.12555755      -1.67329994       0.00000000
Si      -1.71820404       1.22577363       1.24007746       0.00000000
Si       0.84093608      -1.67666454       1.61426010       0.00000000
Si      -0.55964295       2.17041444      -2.76431640       0.00000000
Si      -0.72467694      -2.44020942      -2.80038676       0.00000000
Si       0.73496800      -3.69958932       0.42882115       0.00000000
Si      -0.49168107       2.77184124       2.56188916       0.00000000
Si       3.06034433       2.27512656      -0.45278782       0.00000000
Si       3.05790083      -0.95511528       2.12605338       0.00000000
