10
Lattice="16.28999089631971 0.0 0.0 0.0 16.28999089631971 0.0 0.0 0.0 34.385447050020396" Properties=species:S:1:pos:R:3:initial_magmoms:R:1 pbc="T T T"
Si       1.35483930      -1.35474156       1.36049536       0.00000000
Si       1.35731538       1.35742485      -1.35733190       0.00000000
Si      -1.35755973      -1.35734796      -1.35722874       0.00000000
Si      -1.35565380       1.35817875       1.36008273       0.00000000
Si       0.00035838      -2.71432125      -2.71359784       0.00000000
Si      -2.71406061       2.71404336       0.00113472       0.00000000
Si       2.71485882       2.71374200       0.00037824       0.00000000
Si       0.00026064       2.71429423      -2.71435432       0.00000000
Si      -2.71437012      -0.00021177      -2.71480133       0.00000000
Si       2.71489140      -0.00120546      -2.71480133       0.00000000
