10
Lattice="16.28999089631971 0.0 0.0 0.0 16.28999089631971 0.0 0.0 0.0 34.385447050020396" Properties=species:S:1:pos:R:3:initial_magmoms:R:1 pbc="T T T"
Si       1.45402422      -1.80546957      -0.40581727       0.00000000
Si       0.81765537       0.48057129       2.17508705       0.00000000
Si      -2.39317597       0.01558953       0.18798534       0.00000000
Si       0.58519707       1.51249392      -1.81648103       0.00000000
Si       3.47147556      -0.45271539      -0.06859901       0.00000000
Si      -2.72055610       2.14773876      -0.88154020       0.00000000
Si      -1.49264848       1.57579686      -2.84821694       0.00000000
Si       3.04935279       1.08488142       1.76758489       0.00000000
Si       1.61532780      -2.48490918      -2.61037267       0.00000000
Si      -3.38266315      -1.51208667      -1.40113898       0.00000000
