10
Lattice="16.28999089631971 0.0 0.0 0.0 16.28999089631971 0.0 0.0 0.0 34.385447050020396" Properties=species:S:1:pos:R:3:initial_magmoms:R:1 pbc="T T T"
Si      -0.26792815       2.03890527      -1.07000694       0.00000000
Si       1.21104747       0.52246917       1.91320734       0.00000000
Si       1.33682256      -1.44041067      -1.29657278       0.00000000
Si      -2.07295856      -0.80182638       0.79172536       0.00000000
Si      -1.16322722       3.31182216       0.68922229       0.00000000
Si      -2.77771283      -2.22400854      -1.01251444       0.00000000
Si       1.70766441      -1.51907508       2.95835359       0.00000000
Si       2.44366290       2.54842389       1.45367997       0.00000000
Si       1.94328297      -3.39439617      -0.06299417       0.00000000
Si      -1.86073244      -2.19589200       2.74096867       0.00000000
