10
Lattice="16.28999089631971 0.0 0.0 0.0 16.28999089631971 0.0 0.0 0.0 34.385447050020396" Properties=species:S:1:pos:R:3:initial_magmoms:R:1 pbc="T T T"
Si       1.35530519       1.35747828      -1.35894801       0.00000000
Si      -1.35783182       1.35713619       1.35705681       0.00000000
Si       1.35712967      -1.35774694       1.35729751       0.00000000
Si      -1.35938343      -1.35606095      -1.35812276       0.00000000
Si       2.71367942      -0.00158828       2.71521396       0.00000000
Si       2.71493375      -2.71437731      -0.00130665       0.00000000
Si       2.71439618       2.71513575       0.00003439       0.00000000
Si      -0.00228549       2.71577106       2.71404485       0.00000000
Si      -2.71519832       2.71546155       0.00055017       0.00000000
Si      -2.71612685      -0.00099369       2.71462941       0.00000000
