10
Lattice="16.28999089631971 0.0 0.0 0.0 16.28999089631971 0.0 0.0 0.0 34.385447050020396" Properties=species:S:1:pos:R:3:initial_magmoms:R:1 pbc="T T T"
Si       1.35381303      -1.33907058       1.63232278       0.00000000
Si      -1.32121674       1.36734289       1.64937110       0.00000000
Si      -1.68054156      -0.54121896      -1.98367489       0.00000000
Si       1.92858939       1.29344229      -1.49911490       0.00000000
Si       2.84014521      -2.67362883       0.28191268       0.00000000
Si      -2.06925354       3.28511375       0.48691540       0.00000000
Si       0.00592956      -2.69118945       3.02712796       0.00000000
Si      -2.71155032       0.02355534       3.02448028       0.00000000
Si       2.71751409       0.02292003       3.02819391       0.00000000
Si       0.01571985       2.72531115       3.03472715       0.00000000
