10
Lattice="16.28999089631971 0.0 0.0 0.0 16.28999089631971 0.0 0.0 0.0 34.385447050020396" Properties=species:S:1:pos:R:3:initial_magmoms:R:1 pbc="T T T"
Si       1.35684297      -1.35422028      -1.36039220       0.00000000
Si       1.35718506       1.35865116       1.35819153       0.00000000
Si      -1.35925389      -1.35684297       1.35908555       0.00000000
Si      -1.36063691       1.36052451      -1.36303988       0.00000000
Si      -2.71478456      -2.71438641       0.00120349       0.00000000
Si       2.71362078       2.71704056       0.00453888       0.00000000
Si       2.71443528       0.00021177       2.71645184       0.00000000
Si      -0.00048870      -2.71485882       2.71665815       0.00000000
Si       2.71329498      -2.71826343       0.00068771       0.00000000
Si      -0.00061902       2.71528153       2.71679569       0.00000000
