10
Lattice="16.28999089631971 0.0 0.0 0.0 16.28999089631971 0.0 0.0 0.0 34.385447050020396" Properties=species:S:1:pos:R:3:initial_magmoms:R:1 pbc="T T T"
Si      -1.35379837      -1.36489023       1.34158335       0.00000000
Si      -1.36113701       1.35337320      -1.35619718       0.00000000
Si       1.35596331      -1.36065483      -1.35674734       0.00000000
Si       1.34659656       1.35350352       1.38109225       0.00000000
Si       2.55930561      -0.16483851       2.79818609       0.00000000
Si      -2.74203773      -0.10451664       2.67560190       0.00000000
Si      -0.00171045       2.71270771      -2.71380415       0.00000000
Si       2.71334385      -0.00236205      -2.71414801       0.00000000
Si       2.71687878       2.71262564       0.00845882       0.00000000
Si       2.71278999      -2.71772586      -0.00140980       0.00000000
