10
Lattice="16.28999089631971 0.0 0.0 0.0 16.28999089631971 0.0 0.0 0.0 34.385447050020396" Properties=species:S:1:pos:R:3:initial_magmoms:R:1 pbc="T T T"
Si       0.39887694       0.43525251      -2.19712814       0.00000000
Si      -1.66978039       1.48233203       0.82476979       0.00000000
Si       2.02797468       0.76918122       1.02564969       0.00000000
Si      -0.59836265      -2.35136376      -0.01929025       0.00000000
Si       0.44616681      -2.27880810       2.27941256       0.00000000
Si      -1.80207962       0.17873388      -3.12997145       0.00000000
Si       0.02819799      -0.32363343       3.61941418       0.00000000
Si      -3.59848448       0.18407700       0.47317840       0.00000000
Si      -1.36742332       1.58114065       3.14162813       0.00000000
Si       0.74816712       2.67540511      -2.68316670       0.00000000
