10
Lattice="16.28999089631971 0.0 0.0 0.0 16.28999089631971 0.0 0.0 0.0 34.395419527814205" Properties=species:S:1:pos:R:3:initial_magmoms:R:1 pbc="T T T"
Si       1.24076858      -1.43284138       1.41030242       0.00000000
Si      -1.47470016       1.28006983       1.40457558       0.00000000
Si      -1.14411186      -1.81060648      -1.13662410       0.00000000
Si       1.75859509       0.87655024      -1.50803503       0.00000000
Si       2.61450428       2.58388885      -0.04169759       0.00000000
Si       2.54484823      -2.76922411      -0.06128235       0.00000000
Si       2.58956429      -0.07597493       2.77194217       0.00000000
Si       0.56965316      -3.56458336      -1.28377976       0.00000000
Si      -0.12143380       2.64173464       2.77287084       0.00000000
Si      -2.83048428       2.61430228       0.02329947       0.00000000
