10
Lattice="16.28999089631971 0.0 0.0 0.0 16.28999089631971 0.0 0.0 0.0 34.395419527814205" Properties=species:S:1:pos:R:3:initial_magmoms:R:1 pbc="T T T"
Si      -0.71116113       0.57280527       2.17045537       0.00000000
Si      -1.43111560       1.49147982      -1.16531746       0.00000000
Si       2.34644418       0.35520345      -0.25146505       0.00000000
Si      -0.78741625      -2.28527523      -0.11168199       0.00000000
Si      -3.38340761       0.15977232      -1.35397645       0.00000000
Si      -2.79646262      -2.06462718      -1.30585723       0.00000000
Si      -0.47943588      -3.15801198       2.04697575       0.00000000
Si      -1.37497374      -1.41405345       3.26223539       0.00000000
Si      -0.40719299       2.33345358      -3.05637869       0.00000000
Si      -2.88646487       1.43270550       2.15865774       0.00000000
