10
Lattice="16.28999089631971 0.0 0.0 0.0 16.28999089631971 0.0 0.0 0.0 34.395419527814205" Properties=species:S:1:pos:R:3:initial_magmoms:R:1 pbc="T T T"
Si      -2.17530374       0.85990023      -0.01179764       0.00000000
Si       0.71116113      -0.57280527      -2.17045537       0.00000000
Si      -0.66381261      -1.98685872       1.09178002       0.00000000
Si       1.29058014       1.41812010       1.42720434       0.00000000
Si       0.31368513       0.53124948       3.28438605       0.00000000
Si      -0.71995447       0.91867455      -3.33577284       0.00000000
Si      -0.07625512      -2.85808050      -2.28213736       0.00000000
Si       0.57665460      -1.73263698       3.18642784       0.00000000
Si       0.23172525      -3.73081725      -0.12347963       0.00000000
Si      -3.14670902       0.50171571       2.06224732       0.00000000
