10
Lattice="16.28999089631971 0.0 0.0 0.0 16.28999089631971 0.0 0.0 0.0 34.395419527814205" Properties=species:S:1:pos:R:3:initial_magmoms:R:1 pbc="T T T"
Si      -2.27991582       0.45804222       0.19337116       0.00000000
Si       0.86636736      -0.34168275      -2.14706647       0.00000000
Si      -0.10551033      -2.43138024       0.21404282       0.00000000
Si       1.45142271       2.03789529       0.45697780       0.00000000
Si      -2.00562480       1.07950572       2.67826664       0.00000000
Si       0.76481550       3.14568045      -1.61445310       0.00000000
Si       1.36262592      -2.57352678       2.25087191       0.00000000
Si      -2.54288529       2.72192868       0.29132937       0.00000000
Si      -0.31465764      -1.96587720      -3.27461775       0.00000000
Si       3.69458829       1.16216118       0.30058174       0.00000000
