10
Lattice="16.28999089631971 0.0 0.0 0.0 16.28999089631971 0.0 0.0 0.0 34.395419527814205" Properties=species:S:1:pos:R:3:initial_magmoms:R:1 pbc="T T T"
Si       1.34068329       1.36078515       1.38419284       0.00000000
Si      -1.35146727       1.30396563      -1.43106350       0.00000000
Si      -1.37640726      -1.35589815       1.38257625       0.00000000
Si       1.35148356      -1.43697511      -1.53083435       0.00000000
Si      -2.20737645      -0.40337298      -2.89740095       0.00000000
Si       2.68928352       2.70596448      -0.00059160       0.00000000
Si      -0.42357258      -2.37357843      -2.95889999       0.00000000
Si       2.70677898      -2.72052551      -0.00982678       0.00000000
Si      -2.73297330       2.69599500       0.01648229       0.00000000
Si      -2.72520297      -2.71276460       0.02093650       0.00000000
