10
Lattice="16.28999089631971 0.0 0.0 0.0 16.28999089631971 0.0 0.0 0.0 34.395419527814205" Properties=species:S:1:pos:R:3:initial_magmoms:R:1 pbc="T T T"
Si      -1.35697329      -1.35675663       1.35665929       0.00000000
Si       1.35650088       1.35871632       1.35662490       0.00000000
Si       1.35767376      -1.35708732      -1.35717522       0.00000000
Si      -1.35747828       1.35757602      -1.35714083       0.00000000
Si       2.71389771       0.00027693      -2.71335298       0.00000000
Si      -0.00070047      -2.71285303      -2.71472879       0.00000000
Si      -0.00029322       2.71386513      -2.71400649       0.00000000
Si      -0.00211770      -2.71366055       2.71486638       0.00000000
Si       2.71451673      -2.71434669       0.00006879       0.00000000
Si      -2.71495656      -2.71450631      -0.00003440       0.00000000
