10
Lattice="16.28999089631971 0.0 0.0 0.0 16.28999089631971 0.0 0.0 0.0 34.395419527814205" Properties=species:S:1:pos:R:3:initial_magmoms:R:1 pbc="T T T"
Si       1.06642485       2.08845945       0.49354015       0.00000000
Si       1.49985288      -1.25106290      -1.43676627       0.00000000
Si      -1.38500838       1.35090689      -1.47123050       0.00000000
Si       0.07741008      -1.31788448       2.31075437       0.00000000
Si      -3.40658109       0.23296166       0.71528754       0.00000000
Si       3.29387058      -1.15711847       0.28699554       0.00000000
Si       3.30152688       1.21529916       0.54152179       0.00000000
Si      -2.70138699       2.67344964       0.11574065       0.00000000
Si       2.31190938      -2.36202461       2.16715341       0.00000000
Si      -2.66370822      -0.08694739      -2.92092945       0.00000000
