10
Lattice="16.28999089631971 0.0 0.0 0.0 16.28999089631971 0.0 0.0 0.0 34.395419527814205" Properties=species:S:1:pos:R:3:initial_magmoms:R:1 pbc="T T T"
Si      -1.06642485      -2.08845945      -0.49354015       0.00000000
Si       2.23510203      -0.87316029       0.04798164       0.00000000
Si      -0.55599399       2.12115348       1.19283382       0.00000000
Si       0.62323911       1.53951903      -2.11576662       0.00000000
Si      -2.45143323      -0.73755256      -1.96477065       0.00000000
Si       2.48145570      -0.08640216      -2.17286305       0.00000000
Si      -0.09932013       3.38162481      -0.82972117       0.00000000
Si       2.89365786       0.24184134       2.02138554       0.00000000
Si      -0.99556335       0.47385981      -3.51318451       0.00000000
Si      -2.87847558       1.66746069       1.83826422       0.00000000
