10
Lattice="16.28999089631971 0.0 0.0 0.0 16.28999089631971 0.0 0.0 0.0 34.395419527814205" Properties=species:S:1:pos:R:3:initial_magmoms:R:1 pbc="T T T"
Si       1.32616890      -1.34392989      -1.35868862       0.00000000
Si      -1.39059585       1.38430791      -1.31600388       0.00000000
Si       1.61880246       1.06565922       1.39741789       0.00000000
Si      -1.45586988      -1.21141237       1.54841386       0.00000000
Si       0.99556335      -0.47385981       3.51318451       0.00000000
Si       2.68301187      -2.53079485       0.07769930       0.00000000
Si       3.47701905      -0.56026197       1.34032146       0.00000000
Si       2.68926723       0.01977606      -2.69257813       0.00000000
Si      -2.73456972      -2.64926665       0.09871491       0.00000000
Si      -0.02531466      -2.69510624      -2.69474504       0.00000000
