10
Lattice="16.28999089631971 0.0 0.0 0.0 16.28999089631971 0.0 0.0 0.0 34.395419527814205" Properties=species:S:1:pos:R:3:initial_magmoms:R:1 pbc="T T T"
Si      -1.26534204      -1.95783713       0.18982843       0.00000000
Si       2.34185040      -0.28754131       0.24909177       0.00000000
Si      -0.59285826       0.53063046      -2.24203228       0.00000000
Si      -0.47332224       1.64094057       1.68971032       0.00000000
Si       1.32076062       1.94043222      -2.51117659       0.00000000
Si       2.57838120      -2.59834364      -0.07601392       0.00000000
Si       3.19011957       0.83800647      -1.61263015       0.00000000
Si      -2.60258814       1.73325600      -1.95015259       0.00000000
Si      -3.72705426       0.88057224       0.01884870       0.00000000
Si      -0.57873483      -3.06562229       2.26125933       0.00000000
