10
Lattice="16.28999089631971 0.0 0.0 0.0 16.28999089631971 0.0 0.0 0.0 34.395419527814205" Properties=species:S:1:pos:R:3:initial_magmoms:R:1 pbc="T T T"
Si       1.86935895      -1.10242575       0.89854644       0.00000000
Si      -1.91361888      -1.40980176       0.26914431       0.00000000
Si       0.20701332      -0.38130003      -2.35416141       0.00000000
Si      -0.41971185       1.84744890       1.58157106       0.00000000
Si      -2.68307703       1.85191236       0.66114912       0.00000000
Si      -1.32076062      -1.94043222       2.51117659       0.00000000
Si       2.45759085      -0.94488516      -2.41039795       0.00000000
Si      -2.08156878       2.57181633      -1.59464133       0.00000000
Si       1.02108978      -2.22797353       2.76026836       0.00000000
Si       2.57968440      -2.59772232      -0.72770430       0.00000000
