10
Lattice="16.28999089631971 0.0 0.0 0.0 16.28999089631971 0.0 0.0 0.0 34.395419527814205" Properties=species:S:1:pos:R:3:initial_magmoms:R:1 pbc="T T T"
Si       1.77505614       0.93660332       1.42806564       0.00000000
Si      -0.99755073      -1.67556889       1.50825172       0.00000000
Si       0.48430170      -1.51253857      -1.93553452       0.00000000
Si      -1.78380387       1.97020545       0.06149904       0.00000000
Si      -2.30163039      -0.33918616       2.97983649       0.00000000
Si       0.42357258       2.37357843       2.95889999       0.00000000
Si      -2.97274581      -2.47092814       0.28575432       0.00000000
Si       3.17163042       2.30082729       0.06129267       0.00000000
Si      -3.54239896       1.09365521       1.56953408       0.00000000
Si      -0.20230551      -0.40475341      -4.00696543       0.00000000
