10
Lattice="16.28999089631971 0.0 0.0 0.0 16.28999089631971 0.0 0.0 0.0 34.395419527814205" Properties=species:S:1:pos:R:3:initial_magmoms:R:1 pbc="T T T"
Si       1.05168240       1.43656623      -1.49637356       0.00000000
Si      -1.23053031       1.78106715       1.12961500       0.00000000
Si       1.91806605      -1.13319756       1.14079352       0.00000000
Si      -1.72776627      -1.29375180      -1.33234172       0.00000000
Si       2.86529697       2.27235726      -0.10201687       0.00000000
Si       2.36314143       0.03960099      -2.87181276       0.00000000
Si      -0.36877302      -2.65665465      -2.85867371       0.00000000
Si       2.64062529      -2.97530334      -0.14525194       0.00000000
Si      -0.35982981       2.77325847      -2.87105606       0.00000000
Si      -3.10913058      -2.53071666       0.19326797       0.00000000
