10
Lattice="16.28999089631971 0.0 0.0 0.0 16.28999089631971 0.0 0.0 0.0 34.395419527814205" Properties=species:S:1:pos:R:3:initial_magmoms:R:1 pbc="T T T"
Si       1.69257987       0.21980097      -1.57967932       0.00000000
Si      -0.47912148       1.62328221       1.59567319       0.00000000
Si      -1.60783929      -0.65396205      -1.57221551       0.00000000
Si       1.18413639      -1.84805163       0.84447681       0.00000000
Si       2.87489178      -1.95836751      -0.97287499       0.00000000
Si      -2.13830685       2.90934513       0.49268026       0.00000000
Si      -0.56995452      -2.74921443      -2.36293225       0.00000000
Si      -0.56130453      -3.42189369       1.22158840       0.00000000
Si       1.56103812       2.80461672       1.91850878       0.00000000
Si      -0.92603763       0.53377443       3.66053457       0.00000000
