10
Lattice="16.28999089631971 0.0 0.0 0.0 16.28999089631971 0.0 0.0 0.0 34.395419527814205" Properties=species:S:1:pos:R:3:initial_magmoms:R:1 pbc="T T T"
Si      -1.12236471      -0.33715413      -2.03548767       0.00000000
Si       1.38741930      -1.77769512       0.98432867       0.00000000
Si       2.13363162       1.12972779      -0.50279252       0.00000000
Si      -1.69075539       0.11031588       1.81735180       0.00000000
Si      -1.18231191       2.17816848      -0.60680433       0.00000000
Si       1.21344210       1.62106677      -2.72893411       0.00000000
Si       2.32728714      -2.21646627      -1.20693595       0.00000000
Si      -2.87489178       1.95836751       0.97287499       0.00000000
Si       2.69342118      -0.22186980      -2.44572207       0.00000000
Si       3.22080993       1.06629453       1.64300132       0.00000000
