10
Lattice="16.28999089631971 0.0 0.0 0.0 16.28999089631971 0.0 0.0 0.0 34.395419527814205" Properties=species:S:1:pos:R:3:initial_magmoms:R:1 pbc="T T T"
Si       1.86937524       1.21225945       0.82696953       0.00000000
Si       0.27751644      -0.43787031      -2.34604409       0.00000000
Si      -2.10431681       1.03456813      -0.52944899       0.00000000
Si       0.07221357      -1.38377101       1.97268160       0.00000000
Si      -3.20444567       0.76196149       1.50232397       0.00000000
Si       1.87204680       3.08508817      -0.72952726       0.00000000
Si      -0.71768527      -3.60893614      -0.23880753       0.00000000
Si       0.98271054       2.00261767      -2.94559098       0.00000000
Si       2.12278248      -2.42763421       1.83262337       0.00000000
Si       3.51510507      -0.56872788       1.19978169       0.00000000
