10
Lattice="16.28999089631971 0.0 0.0 0.0 16.28999089631971 0.0 0.0 0.0 34.395419527814205" Properties=species:S:1:pos:R:3:initial_magmoms:R:1 pbc="T T T"
Si      -1.33428132      -1.87183503       0.25954798       0.00000000
Si       2.11418136      -0.71798175       0.73888282       0.00000000
Si       0.04008969       0.27510552      -2.35976787       0.00000000
Si      -1.98498537       0.31570020       2.93857431       0.00000000
Si       3.70144638       0.95074956       0.37872818       0.00000000
Si       0.86938101       2.48968215      -2.84543146       0.00000000
Si      -0.86095908      -3.51277560      -1.43016234       0.00000000
Si      -2.22327549       0.27956898      -3.28018981       0.00000000
Si       1.41635034       2.44524303       2.88237216       0.00000000
Si       0.61623441       3.89624220       0.87409128       0.00000000
