10
Lattice="16.28999089631971 0.0 0.0 0.0 16.28999089631971 0.0 0.0 0.0 34.395419527814205" Properties=species:S:1:pos:R:3:initial_magmoms:R:1 pbc="T T T"
Si       1.72656081       1.14034887      -1.23479767       0.00000000
Si       1.35653346      -1.23124707       1.59431114       0.00000000
Si      -1.34040636       1.48151034       1.57850299       0.00000000
Si      -1.35560493      -1.57688829      -1.50604010       0.00000000
Si       2.64554487      -2.62866843       0.15007762       0.00000000
Si       3.48250878      -0.80107704      -1.09542777       0.00000000
Si      -2.74323600      -2.72163546       0.11895319       0.00000000
Si       0.01288539      -2.57769702       2.97714535       0.00000000
Si      -2.74866057       2.87150346       0.14385204       0.00000000
Si      -2.70140328       0.13572828       2.97370581       0.00000000
