10
Lattice="16.28999089631971 0.0 0.0 0.0 16.28999089631971 0.0 0.0 0.0 34.395419527814205" Properties=species:S:1:pos:R:3:initial_magmoms:R:1 pbc="T T T"
Si      -0.00267156      -1.87282872       1.55649679       0.00000000
Si       2.32248159       0.45369279      -0.64543041       0.00000000
Si      -1.03788477       2.09525238       0.79071674       0.00000000
Si      -0.88933626      -1.08247050      -2.21606372       0.00000000
Si       0.00864999      -0.67267926       3.58452065       0.00000000
Si       0.56995452       2.74921443       2.36293225       0.00000000
Si      -1.87204680      -3.08508817       0.72952726       0.00000000
Si       1.75409091       0.90116280       3.20740906       0.00000000
Si       3.44484630       0.79084692       1.39005726       0.00000000
Si       2.87847558      -1.66746069      -1.83826422       0.00000000
