10
Lattice="16.28999089631971 0.0 0.0 0.0 16.28999089631971 0.0 0.0 0.0 34.395419527814205" Properties=species:S:1:pos:R:3:initial_magmoms:R:1 pbc="T T T"
Si       1.35068535       1.36101321      -1.38789035       0.00000000
Si      -1.36462959      -1.35343836      -1.38548267       0.00000000
Si      -1.35856971       1.40685280       1.40556960       0.00000000
Si       1.44000342      -1.28669823       1.47683695       0.00000000
Si      -0.06698448      -2.65790898       2.66585288       0.00000000
Si       2.70216891       2.71218956      -0.05183393       0.00000000
Si      -2.74397068      -2.68491780      -0.01675058       0.00000000
Si       2.72386719      -2.71586880       0.00815172       0.00000000
Si      -2.71831719       2.73208779      -0.00663832       0.00000000
Si       2.70979263       0.00267156      -2.74444645       0.00000000
