10
Lattice="16.28999089631971 0.0 0.0 0.0 16.28999089631971 0.0 0.0 0.0 34.395419527814205" Properties=species:S:1:pos:R:3:initial_magmoms:R:1 pbc="T T T"
Si      -1.50698790      -1.37121075       1.18901592       0.00000000
Si       1.28386377      -1.42917057      -1.46868523       0.00000000
Si      -1.44000342       1.28669823      -1.47683695       0.00000000
Si       1.36498797       1.52943552       1.41289583       0.00000000
Si       2.61900846       2.81202282      -0.09228296       0.00000000
Si       1.20137121      -2.71433754       2.46591219       0.00000000
Si      -2.79292050      -2.69057043      -0.19099787       0.00000000
Si      -2.79857313       2.69355103      -0.07126735       0.00000000
Si       2.62990647      -0.07149681      -2.85908645       0.00000000
Si      -0.08931807       2.64771144      -2.86472730       0.00000000
