10
Lattice="16.28999089631971 0.0 0.0 0.0 16.28999089631971 0.0 0.0 0.0 34.395419527814205" Properties=species:S:1:pos:R:3:initial_magmoms:R:1 pbc="T T T"
Si      -0.24640254       1.41998857       1.95035896       0.00000000
Si       2.23449930      -1.04414013      -0.14360096       0.00000000
Si      -1.97807841      -1.50068367       0.44855092       0.00000000
Si      -0.07741008       1.31788448      -2.31075437       0.00000000
Si      -1.63872513      -0.43891776       2.58320064       0.00000000
Si       3.21646050       0.16076601      -2.02375883       0.00000000
Si       0.98901477       3.40634393      -1.81721422       0.00000000
Si      -1.36673100      -3.76403256      -0.16279361       0.00000000
Si       1.42244280       0.06682158      -3.74752063       0.00000000
Si      -1.89213237       3.20097590       1.57754680       0.00000000
