10
Lattice="16.28999089631971 0.0 0.0 0.0 16.28999089631971 0.0 0.0 0.0 34.395419527814205" Properties=species:S:1:pos:R:3:initial_magmoms:R:1 pbc="T T T"
Si      -1.35189081      -1.35754833       1.37965264       0.00000000
Si       1.36607940       1.35368271       1.37710738       0.00000000
Si       1.33859817      -1.46615864      -1.34344800       0.00000000
Si      -1.38199473       1.36868580      -1.53119550       0.00000000
Si       2.41637715       0.24285132      -2.55250615       0.00000000
Si      -2.71526607       2.69851995      -0.00038523       0.00000000
Si      -2.69777061      -2.72797004      -0.00962040       0.00000000
Si       2.71378368       2.71982727      -0.00407586       0.00000000
Si       0.00708615       2.70961344       2.74061136       0.00000000
Si      -2.70860346      -0.00431685       2.74243432       0.00000000
