10
Lattice="16.28999089631971 0.0 0.0 0.0 16.28999089631971 0.0 0.0 0.0 34.395419527814205" Properties=species:S:1:pos:R:3:initial_magmoms:R:1 pbc="T T T"
Si      -1.35684297       1.35725937      -1.35724401       0.00000000
Si       1.35843939       1.35736362       1.35758797       0.00000000
Si      -1.35752715      -1.35765551       1.35824148       0.00000000
Si       1.35827649      -1.35789986      -1.35748478       0.00000000
Si      -0.00061902       2.71462362      -2.71342177       0.00000000
Si      -2.71451673       2.71434669      -0.00006879       0.00000000
Si      -2.71467963      -2.71498718       0.00010319       0.00000000
Si      -2.71521720       0.00149365      -2.71479759       0.00000000
Si       2.71508688       2.71524264       0.00010319       0.00000000
Si      -0.00019548      -2.71676279      -2.71373133       0.00000000
