10
Lattice="16.28999089631971 0.0 0.0 0.0 16.28999089631971 0.0 0.0 0.0 34.395419527814205" Properties=species:S:1:pos:R:3:initial_magmoms:R:1 pbc="T T T"
Si      -1.13467834      -1.17815796      -1.65841047       0.00000000
Si      -0.69724297       2.23021503      -0.05847225       0.00000000
Si       2.28854203      -0.55837233      -0.09895568       0.00000000
Si      -0.74228482      -0.46209843       2.32881197       0.00000000
Si       1.91279689       2.62796796       0.99657344       0.00000000
Si      -2.88270937       1.99505259       0.83928310       0.00000000
Si      -0.55959247      -2.84130180       2.36320741       0.00000000
Si       3.19491763       0.46333647       1.97443577       0.00000000
Si      -3.08905480      -0.02397888       2.18840979       0.00000000
Si       2.41944847      -2.93366284       0.12062480       0.00000000
