10
Lattice="16.28999089631971 0.0 0.0 0.0 16.28999089631971 0.0 0.0 0.0 34.395419527814205" Properties=species:S:1:pos:R:3:initial_magmoms:R:1 pbc="T T T"
Si      -2.28854203       0.55837233       0.09895568       0.00000000
Si       0.13090644      -2.37529051       0.21958048       0.00000000
Si       1.12446612       0.85268376      -1.96900129       0.00000000
Si       0.90637560       1.02170880       2.07339144       0.00000000
Si      -0.37574514       3.18634029       1.09552912       0.00000000
Si       3.25373202       0.76036833       1.67086162       0.00000000
Si       2.46171222      -2.83840937       0.17097973       0.00000000
Si      -3.42322037      -0.61978563      -1.55945480       0.00000000
Si       3.72705426      -0.88057224      -0.01884870       0.00000000
Si       3.13419600      -0.34994178      -2.26088098       0.00000000
