10
Lattice="16.28999089631971 0.0 0.0 0.0 16.28999089631971 0.0 0.0 0.0 34.395419527814205" Properties=species:S:1:pos:R:3:initial_magmoms:R:1 pbc="T T T"
Si      -1.27449702      -1.44888147      -1.36620544       0.00000000
Si      -1.33327134       1.32983415       1.53081028       0.00000000
Si       0.66367089       1.94841432      -1.36534555       0.00000000
Si       1.38199473      -1.36868580       1.53119550       0.00000000
Si      -0.40795047       0.59816880      -3.45524681       0.00000000
Si      -0.05810643      -1.76678082      -3.31467265       0.00000000
Si      -2.77593003       2.63793744       0.10367129       0.00000000
Si       2.69974170       2.75691960      -0.02034146       0.00000000
Si      -2.67107130      -2.81310544       0.00056752       0.00000000
Si       2.72059290      -2.83484444       0.18774750       0.00000000
