10
Lattice="16.28999089631971 0.0 0.0 0.0 16.28999089631971 0.0 0.0 0.0 34.395419527814205" Properties=species:S:1:pos:R:3:initial_magmoms:R:1 pbc="T T T"
Si      -1.34860023      -1.34517933       1.38478444       0.00000000
Si       1.36550925       1.36959804       1.37907480       0.00000000
Si      -1.44265869       1.30810329      -1.42713898       0.00000000
Si       1.33327134      -1.32983415      -1.53081028       0.00000000
Si       1.99694223       0.61858017      -2.89615583       0.00000000
Si       0.22748985       2.43155943      -2.84256774       0.00000000
Si      -2.68928352      -2.70596448       0.00059160       0.00000000
Si       2.71526607      -2.69851995       0.00038523       0.00000000
Si      -2.70568755       2.72911257       0.01009162       0.00000000
Si       0.00666261      -2.70283680       2.74281955       0.00000000
