10
Lattice="16.28999089631971 0.0 0.0 0.0 16.28999089631971 0.0 0.0 0.0 34.395419527814205" Properties=species:S:1:pos:R:3:initial_magmoms:R:1 pbc="T T T"
Si      -0.83696391      -1.82759139       1.24550539       0.00000000
Si       0.82800441      -1.01794581      -2.01608822       0.00000000
Si       1.85670162       0.82720620       1.32418152       0.00000000
Si      -1.75594797       1.94142591      -0.13936989       0.00000000
Si      -0.04818582       0.60505947      -3.40129572       0.00000000
Si      -2.12597532      -0.43017003       2.68973891       0.00000000
Si       0.60069375       2.29695516       2.69872988       0.00000000
Si      -2.30045751       0.53222688      -2.76026793       0.00000000
Si      -3.48250878       0.80107704       1.09542777       0.00000000
Si       2.90198205       2.45884518      -0.01492720       0.00000000
