10
Lattice="16.28999089631971 0.0 0.0 0.0 16.28999089631971 0.0 0.0 0.0 34.395419527814205" Properties=species:S:1:pos:R:3:initial_magmoms:R:1 pbc="T T T"
Si       1.04528043       1.63163898      -1.33910871       0.00000000
Si      -1.25600787       1.46974896       1.37454836       0.00000000
Si       1.47175263      -1.26869778       1.36700200       0.00000000
Si      -1.85670162      -0.82720620      -1.32418152       0.00000000
Si       2.20442796      -0.14188590      -2.64114805       0.00000000
Si      -2.69366553      -2.65479759      -0.07867613       0.00000000
Si       0.10205685      -2.60568324       2.74787568       0.00000000
Si      -2.61149877       0.11308518       2.74636228       0.00000000
Si      -2.50789437       2.85063597      -0.16553149       0.00000000
Si       2.74048299       2.70296712       0.00055377       0.00000000
