10
Lattice="16.28999089631971 0.0 0.0 0.0 16.28999089631971 0.0 0.0 0.0 34.395419527814205" Properties=species:S:1:pos:R:3:initial_magmoms:R:1 pbc="T T T"
Si       1.77921009      -1.58617359      -0.25239373       0.00000000
Si      -0.13880709      -0.17158257       2.43674486       0.00000000
Si       0.72495387       1.89126900      -1.49857487       0.00000000
Si      -1.98579987      -0.65844180      -1.43803890       0.00000000
Si       0.72907524      -3.27285648      -1.53737293       0.00000000
Si      -3.55074759      -0.55887732       0.91292374       0.00000000
Si      -0.75893481      -1.99143621      -3.03611977       0.00000000
Si       1.95807429       0.72185877      -3.07082477       0.00000000
Si       3.32141697      -0.55338759      -1.64888294       0.00000000
Si       2.38992219       2.89044873      -0.23375140       0.00000000
