10
Lattice="16.28999089631971 0.0 0.0 0.0 16.28999089631971 0.0 0.0 0.0 34.395419527814205" Properties=species:S:1:pos:R:3:initial_magmoms:R:1 pbc="T T T"
Si       0.80721837      -2.17346067       0.37484149       0.00000000
Si       1.24339941       1.73382615       1.01562852       0.00000000
Si       0.11720655       0.42068925      -2.36874508       0.00000000
Si      -2.27799360       0.77203197       0.87020460       0.00000000
Si      -1.47787767      -0.67896720       2.87848548       0.00000000
Si       0.36720918       3.35683143      -0.36957899       0.00000000
Si      -2.02484700      -0.63452808      -2.84931815       0.00000000
Si      -3.23897328       0.77139666      -1.44374854       0.00000000
Si       1.75459590      -2.68566714      -1.78856281       0.00000000
Si       0.29157471      -2.49194646       2.82489738       0.00000000
