10
Lattice="16.28999089631971 0.0 0.0 0.0 16.28999089631971 0.0 0.0 0.0 34.395419527814205" Properties=species:S:1:pos:R:3:initial_magmoms:R:1 pbc="T T T"
Si      -0.87619023       1.62300528      -1.38520750       0.00000000
Si      -1.24339941      -1.73382615      -1.01562852       0.00000000
Si       2.32839486      -0.41363568      -0.14635259       0.00000000
Si      -0.82800441       1.01794581       2.01608822       0.00000000
Si      -3.12846192       1.55017269      -0.74417971       0.00000000
Si      -3.52139301      -0.96179418      -0.14542392       0.00000000
Si       3.23312517       1.70326611       0.69912169       0.00000000
Si       0.25278822       3.62001267      -0.85792543       0.00000000
Si      -1.66496832      -0.80964558       3.26159361       0.00000000
Si      -1.12619286      -1.31313690      -3.38437359       0.00000000
