10
Lattice="16.28999089631971 0.0 0.0 0.0 16.28999089631971 0.0 0.0 0.0 34.395419527814205" Properties=species:S:1:pos:R:3:initial_magmoms:R:1 pbc="T T T"
Si      -1.35619137      -1.35633798       1.35662490       0.00000000
Si       1.35684297      -1.35668007      -1.35751918       0.00000000
Si       1.35808101       1.35808101       1.35690006       0.00000000
Si      -1.35793440       1.35793440      -1.35772555       0.00000000
Si       2.71388142      -2.71423980      -0.00024077       0.00000000
Si       2.71366965       0.00055386      -2.71466000       0.00000000
Si       2.71404432       0.00115659       2.71438484       0.00000000
Si      -0.00045612      -2.71394658      -2.71452242       0.00000000
Si       2.71489140       2.71492535      -0.00041275       0.00000000
Si      -2.71500543      -2.71484253       0.00017198       0.00000000
