10
Lattice="16.28999089631971 0.0 0.0 0.0 16.28999089631971 0.0 0.0 0.0 34.395419527814205" Properties=species:S:1:pos:R:3:initial_magmoms:R:1 pbc="T T T"
Si      -1.23312042       1.16941023       1.57224990       0.00000000
Si       1.34737848       1.36594908      -1.34706296       0.00000000
Si      -1.36866951      -1.35114147      -1.34396737       0.00000000
Si       1.36334268      -1.27524636       1.42194183       0.00000000
Si       0.43184790       2.16858996       2.83707337       0.00000000
Si      -0.17886420      -2.30803236       2.81843104       0.00000000
Si      -1.95807429      -0.72185877       3.07082477       0.00000000
Si       2.70389565       0.00765630      -2.70502928       0.00000000
Si      -0.00889434      -2.70581787      -2.70547642       0.00000000
Si       2.70596448      -2.70987408       0.03584005       0.00000000
