10
Lattice="16.28999089631971 0.0 0.0 0.0 16.28999089631971 0.0 0.0 0.0 34.395419527814205" Properties=species:S:1:pos:R:3:initial_magmoms:R:1 pbc="T T T"
Si      -1.12897845      -1.99700739      -0.52728208       0.00000000
Si      -0.38271726       1.29204135      -1.94241361       0.00000000
Si       2.35022346      -0.36551502      -0.18597614       0.00000000
Si       0.12691539       1.99422180       2.57532408       0.00000000
Si       1.82118942      -0.14322168       2.85908645       0.00000000
Si       1.03612545       3.06666973      -1.32357088       0.00000000
Si      -2.67299352       1.70082261      -1.66776603       0.00000000
Si       3.00517920       1.88804358      -0.71827995       0.00000000
Si      -3.58694397       0.35780985       0.51311116       0.00000000
Si      -0.25278822      -3.62001267       0.85792543       0.00000000
