10
Lattice="16.28999089631971 0.0 0.0 0.0 16.28999089631971 0.0 0.0 0.0 34.395419527814205" Properties=species:S:1:pos:R:3:initial_magmoms:R:1 pbc="T T T"
Si       1.67260833       1.08408321       1.18664608       0.00000000
Si       0.00387702       0.34417512      -2.29676716       0.00000000
Si      -1.07777898      -1.70900996       1.20905814       0.00000000
Si      -1.61389917      -1.56614503      -2.19839620       0.00000000
Si       2.35064700      -0.09394443      -2.15636498       0.00000000
Si      -2.41637715      -0.24285132       2.55250615       0.00000000
Si       0.29740653       2.47697595       2.54843029       0.00000000
Si       3.16999851       1.94277798      -0.49613154       0.00000000
Si      -1.80317268      -3.37573502      -0.43590513       0.00000000
Si       0.32483889      -2.97110220       2.57746692       0.00000000
