10
Lattice="16.28999089631971 0.0 0.0 0.0 16.28999089631971 0.0 0.0 0.0 34.395419527814205" Properties=species:S:1:pos:R:3:initial_magmoms:R:1 pbc="T T T"
Si       1.79464065      -1.56650409      -0.10944629       0.00000000
Si      -0.77851539      -0.30988793       2.29056424       0.00000000
Si       0.80894497       1.94131025      -1.29540101       0.00000000
Si      -1.88431317      -0.83237895      -1.38795914       0.00000000
Si       2.75000354      -0.40280609       2.17389492       0.00000000
Si       2.13312893       0.60251986      -2.87453000       0.00000000
Si      -0.58419198      -2.13233724      -2.88333523       0.00000000
Si       0.74067372      -3.39158682      -1.31765486       0.00000000
Si       3.49287641      -0.72271514      -1.46232208       0.00000000
Si      -2.85650037      -2.68127766      -0.07181768       0.00000000
