10
Lattice="16.28999089631971 0.0 0.0 0.0 16.28999089631971 0.0 0.0 0.0 34.395419527814205" Properties=species:S:1:pos:R:3:initial_magmoms:R:1 pbc="T T T"
Si      -1.41884271      -1.77462838      -0.61884273       0.00000000
Si      -0.71993655       0.73714205       2.13640389       0.00000000
Si       1.96905375      -1.17862615       0.60529093       0.00000000
Si       0.51233679       1.63253004      -1.67158393       0.00000000
Si       2.94045903      -0.82044163      -1.46875403       0.00000000
Si       0.89783964       2.64746220       2.03803293       0.00000000
Si      -1.03612545      -3.06666973       1.32357088       0.00000000
Si      -0.05263299       0.31167983      -3.51937569       0.00000000
Si       1.32690195      -1.55038024      -3.01252450       0.00000000
Si       2.85221610       1.49328312      -1.80878733       0.00000000
