10
Lattice="16.28999089631971 0.0 0.0 0.0 16.28999089631971 0.0 0.0 0.0 34.395419527814205" Properties=species:S:1:pos:R:3:initial_magmoms:R:1 pbc="T T T"
Si      -1.34770428      -1.36614456       1.38118324       0.00000000
Si       1.36308204       1.35011520       1.38658332       0.00000000
Si       1.37520180      -1.39289274      -1.36178421       0.00000000
Si      -1.39603671       1.40577813      -1.54746111       0.00000000
Si      -0.29740653      -2.47697595      -2.54843029       0.00000000
Si      -2.70091458       2.71616202       0.00001720       0.00000000
Si       2.71697652       2.71090035       0.00231137       0.00000000
Si      -2.71378368      -2.71982727       0.00407586       0.00000000
Si       0.00897579       2.70585045       2.74551271       0.00000000
Si      -2.70669753      -0.01021383       2.74468722       0.00000000
