10
Lattice="16.28999089631971 0.0 0.0 0.0 16.28999089631971 0.0 0.0 0.0 34.395419527814205" Properties=species:S:1:pos:R:3:initial_magmoms:R:1 pbc="T T T"
Si      -1.35751086       1.35742941       1.35717522       0.00000000
Si      -1.35733167      -1.35749457      -1.35782874       0.00000000
Si       1.35784079      -1.35790182       1.35741599       0.00000000
Si       1.35834165       1.35742941      -1.35827588       0.00000000
Si      -2.71476108       0.00097740       2.71466000       0.00000000
Si       2.71473080       2.71484253       0.00003440       0.00000000
Si       0.00071676      -2.71492235       2.71472879       0.00000000
Si       2.71567236      -0.00087966       2.71459121       0.00000000
Si      -2.71534752       2.71507059      -0.00020637       0.00000000
Si       2.71525045      -2.71529050       0.00006879       0.00000000
