10
Lattice="16.28999089631971 0.0 0.0 0.0 16.28999089631971 0.0 0.0 0.0 34.395419527814205" Properties=species:S:1:pos:R:3:initial_magmoms:R:1 pbc="T T T"
Si       0.00949707       2.21731335       0.80708897       0.00000000
Si       1.46639552      -1.14432363      -1.50535077       0.00000000
Si      -0.33622560      -1.12705623       2.11748640       0.00000000
Si      -1.19638647       1.64310714      -1.51456875       0.00000000
Si      -2.56668498      -0.47136744       2.53927766       0.00000000
Si       2.22715970       2.49712668       1.44491799       0.00000000
Si       2.82510044      -2.54343915      -0.10590356       0.00000000
Si      -2.51786385       0.19025091      -3.01881887       0.00000000
Si       0.17884777      -2.63981079      -2.97565259       0.00000000
Si       2.67655193       0.63428373       2.90087691       0.00000000
