10
Lattice="16.28999089631971 0.0 0.0 0.0 16.28999089631971 0.0 0.0 0.0 34.395419527814205" Properties=species:S:1:pos:R:3:initial_magmoms:R:1 pbc="T T T"
Si       1.88722908      -0.21677103       1.36735627       0.00000000
Si      -1.67304816       0.54338553       1.65211611       0.00000000
Si       0.13330107      -2.13469047      -1.14997710       0.00000000
Si      -0.08423559       1.84578732      -1.58119271       0.00000000
Si       0.92224206      -0.88104465       3.47758523       0.00000000
Si      -2.51411715       2.58760134       0.86408221       0.00000000
Si      -3.20991192      -1.26715023       1.45396399       0.00000000
Si      -2.29529358       2.61022815      -1.45313850       0.00000000
Si       3.41474142      -1.67488893       0.28524137       0.00000000
Si       2.64839562       1.91093103       2.06073392       0.00000000
