10
Lattice="16.28999089631971 0.0 0.0 0.0 16.28999089631971 0.0 0.0 0.0 34.395419527814205" Properties=species:S:1:pos:R:3:initial_magmoms:R:1 pbc="T T T"
Si      -2.23045938       0.65568879       0.42179127       0.00000000
Si       0.07429869      -2.38443246       0.19275204       0.00000000
Si       1.05098097       1.11549033       1.85700974       0.00000000
Si       0.33622560       1.12705623      -2.11748640       0.00000000
Si      -2.87810091      -1.21432176       1.69930665       0.00000000
Si       3.01277753       1.76133996       0.78339051       0.00000000
Si       0.34572267       3.34436958      -1.31039743       0.00000000
Si      -1.02583017      -2.65703909       2.22452500       0.00000000
Si      -0.47653137       2.57360823       2.93912464       0.00000000
Si      -2.36376045       2.79037926       1.57176836       0.00000000
