10
Lattice="16.28999089631971 0.0 0.0 0.0 16.28999089631971 0.0 0.0 0.0 34.395419527814205" Properties=species:S:1:pos:R:3:initial_magmoms:R:1 pbc="T T T"
Si       1.35610992       1.35637056      -1.35621215       0.00000000
Si       1.35322659      -1.35778779       1.36023642       0.00000000
Si      -1.35861858      -1.35855342      -1.35631534       0.00000000
Si      -1.35977517       1.35467640       1.36150905       0.00000000
Si       0.00889434       2.70581787       2.70547642       0.00000000
Si       2.71278999       2.71347417       0.00044714       0.00000000
Si       2.71376739      -0.00122175      -2.71352495       0.00000000
Si      -0.00092853       2.71393029      -2.71349056       0.00000000
Si      -2.71396287       2.71427238       0.00065351       0.00000000
Si       2.71412577      -2.71533123       0.00154779       0.00000000
