10
Lattice="16.28999089631971 0.0 0.0 0.0 16.28999089631971 0.0 0.0 0.0 34.395419527814205" Properties=species:S:1:pos:R:3:initial_magmoms:R:1 pbc="T T T"
Si      -0.00876402      -0.05317056      -2.36341378       0.00000000
Si       1.46873898       1.49338575       1.13160993       0.00000000
Si       1.38847815      -1.91371662       0.63824176       0.00000000
Si      -2.40655428       0.51189696       0.20826438       0.00000000
Si       1.67837028       3.29082435      -0.32135658       0.00000000
Si       3.58615295      -1.29037977      -0.14597424       0.00000000
Si      -1.34415306      -1.97886033      -3.00368488       0.00000000
Si       0.69960663       1.79238870       3.35641010       0.00000000
Si       2.16145235       0.39558636      -3.22474436       0.00000000
Si       3.71336156       0.67886946       1.12717292       0.00000000
