10
Lattice="16.28999089631971 0.0 0.0 0.0 16.28999089631971 0.0 0.0 0.0 34.395419527814205" Properties=species:S:1:pos:R:3:initial_magmoms:R:1 pbc="T T T"
Si      -0.60711201       2.21983830       0.08113884       0.00000000
Si       2.12165847      -0.58992606      -0.81926496       0.00000000
Si      -0.15283278      -0.69625089       2.27629014       0.00000000
Si      -1.36928853      -1.46593710      -1.35339172       0.00000000
Si       1.89343557      -2.85956289      -0.13606836       0.00000000
Si       0.29476755      -3.06165663      -1.78041110       0.00000000
Si       1.56089151      -2.38493745       2.21152353       0.00000000
Si      -2.36079567      -1.54660518       2.35058428       0.00000000
Si       1.33204959       3.43642437      -0.47909407       0.00000000
Si      -2.44398870       2.47383198      -1.33743224       0.00000000
