10
Lattice="16.28999089631971 0.0 0.0 0.0 16.28999089631971 0.0 0.0 0.0 34.395419527814205" Properties=species:S:1:pos:R:3:initial_magmoms:R:1 pbc="T T T"
Si       0.60711201      -2.21983830      -0.08113884       0.00000000
Si      -1.83687669       0.25399368      -1.41857108       0.00000000
Si       1.93916160       1.21658607      -0.56023291       0.00000000
Si      -0.84075948       0.64619172       2.11965331       0.00000000
Si      -2.33302122       2.48681511      -0.66789063       0.00000000
Si      -1.71263286       2.75027328       1.70161115       0.00000000
Si       0.45427923      -2.91608919       2.19515130       0.00000000
Si       1.35221661       3.44098557      -0.60835213       0.00000000
Si      -1.16699931      -0.06390567      -3.70837862       0.00000000
Si       1.00077615       0.93265137       3.64646683       0.00000000
