10
Lattice="16.28999089631971 0.0 0.0 0.0 16.28999089631971 0.0 0.0 0.0 34.395419527814205" Properties=species:S:1:pos:R:3:initial_magmoms:R:1 pbc="T T T"
Si      -1.96179655      -0.64584963       1.07361923       0.00000000
Si       1.60783929       0.65396205       1.57221551       0.00000000
Si      -0.44939223       1.86284295      -1.45595892       0.00000000
Si       1.03788477      -2.09525238      -0.79071674       0.00000000
Si       3.30041916       0.87376302      -0.00746381       0.00000000
Si      -3.01277753      -1.76133996      -0.78339051       0.00000000
Si      -1.11619569      -1.75611087       2.95501533       0.00000000
Si      -2.66705486       1.58302962      -2.09378794       0.00000000
Si      -0.17852211       3.86336898      -0.29683264       0.00000000
Si       2.79197568      -1.19408958       2.41669232       0.00000000
