10
Lattice="16.28999089631971 0.0 0.0 0.0 16.28999089631971 0.0 0.0 0.0 34.395419527814205" Properties=species:S:1:pos:R:3:initial_magmoms:R:1 pbc="T T T"
Si       1.34858647       1.34400645      -1.35548985       0.00000000
Si       1.35330966      -1.36049193       1.35851664       0.00000000
Si      -1.35993807       1.35606105       1.35917016       0.00000000
Si      -1.34788347      -1.38038202      -1.38080489       0.00000000
Si      -0.07915311       2.59128288      -2.74725312       0.00000000
Si       2.71276297      -0.00123804       2.71607022       0.00000000
Si      -2.71731861       2.71212210       0.00175417       0.00000000
Si       2.71208042       2.71736748      -0.00137582       0.00000000
Si      -0.00166158       2.71322982       2.71634538       0.00000000
Si       2.71390978      -2.71665072      -0.00254526       0.00000000
