10
Lattice="16.28999089631971 0.0 0.0 0.0 16.28999089631971 0.0 0.0 0.0 34.395419527814205" Properties=species:S:1:pos:R:3:initial_magmoms:R:1 pbc="T T T"
Si      -1.34737848      -1.36594908       1.34706296       0.00000000
Si      -1.35596331       1.35692442      -1.35748478       0.00000000
Si       1.35651717      -1.35829278      -1.35796632       0.00000000
Si       1.35677781       1.35158130       1.37261877       0.00000000
Si       0.01596420      -2.64119544       2.76900480       0.00000000
Si      -2.71544526       2.71220355       0.00636316       0.00000000
Si       2.71405071       2.71398305       0.00316438       0.00000000
Si       2.71456365      -2.71371852       0.00505613       0.00000000
Si      -2.71404432      -0.00115659      -2.71438484       0.00000000
Si       0.00084708       2.71376876      -2.71479759       0.00000000
