10
Lattice="16.28999089631971 0.0 0.0 0.0 16.28999089631971 0.0 0.0 0.0 34.395419527814205" Properties=species:S:1:pos:R:3:initial_magmoms:R:1 pbc="T T T"
Si       1.54523682       1.23422814      -1.45630288       0.00000000
Si      -1.12044249      -1.49929902      -1.62559723       0.00000000
Si       1.25367840      -1.86051348       1.06704970       0.00000000
Si      -2.05193727       1.94453730      -0.21046569       0.00000000
Si      -0.82539801       0.21947517       3.06483997       0.00000000
Si      -2.66264937      -2.53208502      -0.22910802       0.00000000
Si      -0.47327337      -3.49721865       1.34630626       0.00000000
Si       0.22037112       2.49347772      -3.02198325       0.00000000
Si      -2.48378517      -0.22405266      -3.04753906       0.00000000
Si       2.59920375       3.05931087      -0.24809430       0.00000000
