10
Lattice="16.28999089631971 0.0 0.0 0.0 16.28999089631971 0.0 0.0 0.0 34.395419527814205" Properties=species:S:1:pos:R:3:initial_magmoms:R:1 pbc="T T T"
Si      -2.12048559      -0.52727472       0.79009762       0.00000000
Si       1.83019308      -1.33975476       0.65568025       0.00000000
Si       0.62087706      -0.84836691      -2.16140937       0.00000000
Si       0.22983561       2.38734578       0.20730131       0.00000000
Si       1.32996447       2.65995242      -1.82447165       0.00000000
Si      -1.72110366      -0.37916604       3.08258801       0.00000000
Si       3.50649485       0.24161328       0.67765893       0.00000000
Si       2.71659600      -1.98355185      -1.53383020       0.00000000
Si       0.18327879       1.28043214      -3.52439742       0.00000000
Si      -3.66410970       1.19581210       0.51569081       0.00000000
