10
Lattice="16.28999089631971 0.0 0.0 0.0 16.28999089631971 0.0 0.0 0.0 34.395419527814205" Properties=species:S:1:pos:R:3:initial_magmoms:R:1 pbc="T T T"
Si      -0.39938193      -0.14810868      -2.29249039       0.00000000
Si       1.98558810      -0.23462487       1.20273970       0.00000000
Si      -0.03515382       2.31934481       0.38887483       0.00000000
Si      -1.69964973      -1.18879533       1.14320120       0.00000000
Si       0.86897376       0.30836970       3.17160341       0.00000000
Si      -0.51056118       2.17042977       2.66475222       0.00000000
Si       1.72110366       0.37916604      -3.08258801       0.00000000
Si      -1.94300604       1.57497814      -2.56689720       0.00000000
Si      -1.20350520      -3.42161676       0.39252075       0.00000000
Si      -3.69165609      -0.24716817       0.30140723       0.00000000
