10
Lattice="16.28999089631971 0.0 0.0 0.0 16.28999089631971 0.0 0.0 0.0 34.395419527814205" Properties=species:S:1:pos:R:3:initial_magmoms:R:1 pbc="T T T"
Si      -1.49739018      -0.85869477       1.68277762       0.00000000
Si      -1.01820354       1.81848528      -1.35782874       0.00000000
Si       1.10730330       1.69523514       1.69108068       0.00000000
Si      -0.81935151      -2.03672241      -1.66023343       0.00000000
Si       1.33370172       2.81136078      -1.42486545       0.00000000
Si       1.83573020       1.05334398      -2.99247196       0.00000000
Si      -3.16999851      -1.94277798       0.49613154       0.00000000
Si      -0.14160606      -2.19292722       3.06405373       0.00000000
Si       2.90355599       2.48876991       0.37538126       0.00000000
Si       3.11785094      -1.11128751      -2.01460964       0.00000000
