10
Lattice="16.28999089631971 0.0 0.0 0.0 16.28999089631971 0.0 0.0 0.0 34.395419527814205" Properties=species:S:1:pos:R:3:initial_magmoms:R:1 pbc="T T T"
Si       1.35848826      -1.35654975      -1.36013323       0.00000000
Si      -1.35745222       1.35913986      -1.35965169       0.00000000
Si       1.35640314       1.36664955       1.36384794       0.00000000
Si      -1.35428870      -1.36533006       1.37636788       0.00000000
Si      -2.71258541      -2.71521720       0.00079110       0.00000000
Si       2.71538010      -2.71293660      -0.00130703       0.00000000
Si      -0.00004887      -2.71386513      -2.71706768       0.00000000
Si       2.71749780       2.71345788       0.00199494       0.00000000
Si       2.71507059       0.00120546      -2.71682692       0.00000000
Si      -2.71515270       0.00120546      -2.71734285       0.00000000
