10
Lattice="16.28999089631971 0.0 0.0 0.0 16.28999089631971 0.0 0.0 0.0 34.395419527814205" Properties=species:S:1:pos:R:3:initial_magmoms:R:1 pbc="T T T"
Si       1.39105360      -1.29235086       1.30258966       0.00000000
Si       1.37934109       1.33147944      -1.36873209       0.00000000
Si      -1.33388158      -1.38315132      -1.36625562       0.00000000
Si      -1.36680172       1.42289892       1.56698740       0.00000000
Si       2.67698620       0.02700882       2.68260345       0.00000000
Si      -2.69166742       2.68214850       0.00130703       0.00000000
Si       0.02542217       2.68861563      -2.72869334       0.00000000
Si      -2.69192806      -0.02772558      -2.72927806       0.00000000
Si       2.74397068       2.68491780       0.01675058       0.00000000
Si      -2.68985923      -2.74525596       0.01159126       0.00000000
