10
Lattice="16.28999089631971 0.0 0.0 0.0 16.28999089631971 0.0 0.0 0.0 34.395419527814205" Properties=species:S:1:pos:R:3:initial_magmoms:R:1 pbc="T T T"
Si       0.47912148      -1.62328221      -1.59567319       0.00000000
Si      -1.65918537       1.28606292      -1.10299293       0.00000000
Si      -0.44691615      -1.08950778       2.06486137       0.00000000
Si       2.04015960       1.18133451       0.32283559       0.00000000
Si      -1.53197676       3.25531215       0.17015424       0.00000000
Si      -1.73262069       0.55873071       3.22374689       0.00000000
Si      -1.15080705       2.67206499       2.42601348       0.00000000
Si       2.02906611       3.12276042      -0.99643586       0.00000000
Si       1.66548960      -1.85864013       2.95866125       0.00000000
Si       1.66325787      -3.47133384      -0.75119638       0.00000000
