10
Lattice="16.28999089631971 0.0 0.0 0.0 16.28999089631971 0.0 0.0 0.0 34.395419527814205" Properties=species:S:1:pos:R:3:initial_magmoms:R:1 pbc="T T T"
Si      -1.35391891       1.35713619      -1.35996125       0.00000000
Si       1.35966114      -1.35907470      -1.35965169       0.00000000
Si      -1.37934109      -1.33147944       1.36873209       0.00000000
Si       1.36462959       1.35343836       1.38548267       0.00000000
Si       0.01171251      -2.62383030       2.67132175       0.00000000
Si      -2.71373561       2.71307081       0.00058472       0.00000000
Si      -2.71322267      -2.71463076       0.00247647       0.00000000
Si      -2.71268700      -0.00107514      -2.71686131       0.00000000
Si       2.71531494       2.71445157      -0.00240768       0.00000000
Si       0.00247608       2.71360581      -2.71730845       0.00000000
