10
Lattice="16.28999089631971 0.0 0.0 0.0 16.28999089631971 0.0 0.0 0.0 34.395419527814205" Properties=species:S:1:pos:R:3:initial_magmoms:R:1 pbc="T T T"
Si       1.02392261       0.84197376      -1.89106122       0.00000000
Si      -1.95229201      -1.33170750      -0.18865898       0.00000000
Si       1.43111560      -1.49147982       1.16531746       0.00000000
Si      -0.48062110       2.21922647       0.89029154       0.00000000
Si      -2.05451176       2.58632162      -0.84795075       0.00000000
Si       0.71995447      -0.91867455       3.33577284       0.00000000
Si       2.76059137       2.12340869      -0.90638860       0.00000000
Si      -0.52577671       2.46942458      -2.58471404       0.00000000
Si      -1.45534927      -0.05877432       3.32397520       0.00000000
Si      -3.06890635      -0.78871293       1.78020472       0.00000000
