10
Lattice="10.86 0.0 0.0 0.0 10.86 0.0 0.0 0.0 10.86" Properties=species:S:1:pos:R:3:initial_magmoms:R:1 pbc="T T T"
Si       1.38626814      -1.04552478       1.22509488       0.00000000
Si      -1.41047508      -1.05652596      -1.31211606       0.00000000
Si      -1.43039232       1.75757154       1.46292888       0.00000000
Si      -0.02452188      -2.44222938      -2.66797620       0.00000000
Si       2.69047812      -2.44222938       0.04702380       0.00000000
Si      -2.73952188      -2.44222938       0.04702380       0.00000000
Si      -0.02452188      -2.44222938       2.76202380       0.00000000
Si      -2.73952188       0.27277062      -2.66797620       0.00000000
Si       2.69047812       0.27277062       2.76202380       0.00000000
Si      -2.73952188       0.27277062       2.76202380       0.00000000
