10
Lattice="10.86 0.0 0.0 0.0 10.86 0.0 0.0 0.0 10.86" Properties=species:S:1:pos:R:3:initial_magmoms:R:1 pbc="T T T"
Si      -1.27936230       1.33790856      -1.29832386       0.00000000
Si      -1.27936230      -1.37709144       1.41667614       0.00000000
Si       1.43563770       1.33790856       1.41667614       0.00000000
Si       1.58980626      -1.52919660      -1.58495184       0.00000000
Si      -2.63686230      -0.01959144      -2.65582386       0.00000000
Si      -2.63686230       2.69540856       0.05917614       0.00000000
Si       0.07813770       2.69540856      -2.65582386       0.00000000
Si      -2.63686230      -2.73459144       0.05917614       0.00000000
Si      -2.63686230      -0.01959144       2.77417614       0.00000000
Si       0.02976726      -2.60729052       2.83258122       0.00000000
