10
Lattice="16.290000149 0.0 0.0 0.0 16.290000149 0.0 0.0 0.0 29.1751946751" Properties=species:S:1:pos:R:3:initial_magmoms:R:1 pbc="T T T"
Si      -1.34657540      -1.32181948       1.38591219       0.00000000
Si       1.35954712       1.37165059       1.36026719       0.00000000
Si      -1.38613566       1.33628500      -1.36931734       0.00000000
Si       1.38696319      -1.36394542      -1.35346937       0.00000000
Si       2.69304653       0.11093490      -2.62877257       0.00000000
Si      -2.68294673      -2.67144599       0.00902097       0.00000000
Si      -2.61010486      -0.14309136      -2.76936491       0.00000000
Si      -0.02570562       2.78027949      -2.60544145       0.00000000
Si       0.02158425      -2.68073129       2.73794906       0.00000000
Si      -2.70347213       0.05450634       2.72172765       0.00000000
