10
Lattice="16.290000149 0.0 0.0 0.0 16.290000149 0.0 0.0 0.0 29.1751946751" Properties=species:S:1:pos:R:3:initial_magmoms:R:1 pbc="T T T"
Si       1.22184775      -1.53256321       1.24297999       0.00000000
Si      -1.38794059      -1.35334063      -1.29071061       0.00000000
Si      -1.05622732       1.46668645       1.47778196       0.00000000
Si       1.37556019       1.31971807      -1.35568377       0.00000000
Si       0.75712663       2.22013154       2.86494577       0.00000000
Si      -2.37070001       0.11038104       2.86249505       0.00000000
Si      -0.02063943       2.60222978      -2.71481021       0.00000000
Si      -0.02686221      -2.70078428      -2.62457134       0.00000000
Si      -2.74292652       0.00544086      -2.59387903       0.00000000
Si      -2.50577669       2.81953839       0.19777864       0.00000000
