10
Lattice="16.290000149 0.0 0.0 0.0 16.290000149 0.0 0.0 0.0 29.1751946751" Properties=species:S:1:pos:R:3:initial_magmoms:R:1 pbc="T T T"
Si      -1.35557236      -1.31602024       1.39702210       0.00000000
Si       1.34092765       1.37044513       1.36481269       0.00000000
Si      -1.36896274       1.35905842      -1.35618850       0.00000000
Si       1.42311070      -1.37746612      -1.29554202       0.00000000
Si      -2.67353111      -2.65287539      -0.00409036       0.00000000
Si      -2.54171243      -0.09453087      -2.81438807       0.00000000
Si       2.68615586      -0.01329264      -2.72225281       0.00000000
Si       2.70840800       2.71989245       0.01505148       0.00000000
Si      -0.00487071      -2.67920003       2.75684875       0.00000000
Si       2.79842655      -2.63766053       0.12414921       0.00000000
