10
Lattice="16.290000149 0.0 0.0 0.0 16.290000149 0.0 0.0 0.0 29.1751946751" Properties=species:S:1:pos:R:3:initial_magmoms:R:1 pbc="T T T"
Si      -1.36684504      -1.35804844      -1.32998042       0.00000000
Si      -1.43757622       1.33509583       1.28134537       0.00000000
Si       1.35423658       1.35110890      -1.36143128       0.00000000
Si       1.36363591      -1.32566392       1.38057021       0.00000000
Si      -0.08736327       2.67898826       2.59312048       0.00000000
Si      -0.09358605      -2.62402580       2.68335936       0.00000000
Si       0.00374670      -2.71471223      -2.66389950       0.00000000
Si      -2.71073747       0.02454903      -2.67332309       0.00000000
Si       2.73259865      -0.01528002      -2.67343979       0.00000000
Si       2.73074159       2.69158043      -0.02856252       0.00000000
