10
Lattice="16.290000149 0.0 0.0 0.0 16.290000149 0.0 0.0 0.0 29.1751946751" Properties=species:S:1:pos:R:3:initial_magmoms:R:1 pbc="T T T"
Si      -1.39030264       1.43123941      -1.22287828       0.00000000
Si      -1.32212899      -1.38214135       1.37602763       0.00000000
Si       1.20208798      -1.46274427      -1.43381494       0.00000000
Si       1.30474756       1.44150211       1.37305468       0.00000000
H        3.23656239       1.75166372      -0.51835568       0.00000000
Si      -0.00451233       2.65502567      -2.65949405       0.00000000
Si       2.67343337      -2.66458790       0.02266913       0.00000000
Si       2.53687430      -0.13463685      -2.83113172       0.00000000
Si      -2.88823332       0.15045444      -2.51367642       0.00000000
Si      -2.68123628      -0.02897991       2.76680041       0.00000000
