10
Lattice="16.290000149 0.0 0.0 0.0 16.290000149 0.0 0.0 0.0 29.1751946751" Properties=species:S:1:pos:R:3:initial_magmoms:R:1 pbc="T T T"
Si       1.74948086       0.32179429      -1.49012307       0.00000000
Si      -1.91954846       1.06130491      -0.77527245       0.00000000
Si       0.63970831       0.67677783       2.14560217       0.00000000
Si      -0.04155579      -2.14514378       0.97987809       0.00000000
Si       1.86727385      -1.98369359      -1.72562524       0.00000000
Si      -0.60608575      -1.10799205       2.98791921       0.00000000
H        1.32892192       2.98700447       0.00805235       0.00000000
Si      -0.75525328       2.49861398      -2.28103342       0.00000000
Si      -2.89795845       1.46688682       1.37774022       0.00000000
Si       2.15493896      -2.86754013       0.51672187       0.00000000
