10
Lattice="16.290000149 0.0 0.0 0.0 16.290000149 0.0 0.0 0.0 29.1751946751" Properties=species:S:1:pos:R:3:initial_magmoms:R:1 pbc="T T T"
H       -0.15539031       1.39089723       0.60640642       0.00000000
Si       0.86915296      -1.23698931       1.70098387       0.00000000
Si       1.85626181      -0.00485116      -1.37015467       0.00000000
Si      -1.88302628      -0.53520795      -1.30666944       0.00000000
Si      -2.59040324       1.66157187      -0.90253465       0.00000000
Si       0.65651959       1.12559829      -2.98724818       0.00000000
Si      -0.64669672       2.67899641      -1.80407734       0.00000000
Si       1.91052380       0.61867792       2.64807487       0.00000000
Si       2.36020925      -2.27459716      -1.05503339       0.00000000
Si      -0.95944843      -2.25605914       2.64991583       0.00000000
