10
Lattice="16.290000149 0.0 0.0 0.0 16.290000149 0.0 0.0 0.0 29.1751946751" Properties=species:S:1:pos:R:3:initial_magmoms:R:1 pbc="T T T"
Si      -1.30472964       0.24811299       1.92112822       0.00000000
Si       2.20951046      -0.10049301       0.80135507       0.00000000
Si      -1.28448280      -0.17565507      -2.02402913       0.00000000
Si      -0.52483122       2.36740943       0.71210815       0.00000000
Si      -0.53203140      -2.00733527       1.75418776       0.00000000
H        2.07619310       0.70382575       2.07351026       0.00000000
H       -2.42197767       0.78775183      -1.72930131       0.00000000
H        0.22356396      -1.64361214      -2.64741552       0.00000000
H        0.67836448       2.73688293       1.59419099       0.00000000
H        0.75611665      -1.95941009       2.56274910       0.00000000
