10
Lattice="16.290000149 0.0 0.0 0.0 16.290000149 0.0 0.0 0.0 29.1751946751" Properties=species:S:1:pos:R:3:initial_magmoms:R:1 pbc="T T T"
Si       1.35476601      -1.41709969       1.30611512       0.00000000
Si      -1.46955235       1.25734366       1.34841915       0.00000000
Si      -1.11670557      -1.67181014      -1.26713706       0.00000000
Si       1.19266422       1.67493782      -1.20017998       0.00000000
Si       2.39366077      -2.63562428      -0.53933265       0.00000000
Si      -2.77810477      -2.47314782       0.18062363       0.00000000
Si       2.52751570       0.03648960       2.76431469       0.00000000
Si      -2.87398771       2.41543235      -0.11850964       0.00000000
Si      -0.13065883      -2.60047046       2.76123670       0.00000000
Si       0.35216537      -3.54893943      -1.31895220       0.00000000
