10
Lattice="16.290000149 0.0 0.0 0.0 16.290000149 0.0 0.0 0.0 29.1751946751" Properties=species:S:1:pos:R:3:initial_magmoms:R:1 pbc="T T T"
Si      -1.48688605       1.79989841      -0.11658408       0.00000000
Si       1.12612771      -1.11562066      -1.75220384       0.00000000
Si      -1.66043972      -1.52440192       0.73343522       0.00000000
Si       1.86274523       0.84235591       1.25161585       0.00000000
H       -0.75178351       0.54724627       2.49847615       0.00000000
H       -1.40107033       0.97257817       2.45821438       0.00000000
Si       2.46866807      -2.52936461      -0.37971516       0.00000000
H        1.36713826       3.21789405      -0.96467781       0.00000000
H        0.79664617       3.33716943       1.36895848       0.00000000
Si       2.55340865       2.70707222      -0.16583181       0.00000000
