10
Lattice="16.290000149 0.0 0.0 0.0 16.290000149 0.0 0.0 0.0 29.1751946751" Properties=species:S:1:pos:R:3:initial_magmoms:R:1 pbc="T T T"
Si       1.37938508      -1.44566584       1.16464460       0.00000000
Si      -1.23097422      -1.36131410      -1.44662285       0.00000000
Si       1.40808806       1.29387236      -1.39171514       0.00000000
Si      -1.21835518       1.28608574       1.60481076       0.00000000
H        1.60737993       1.51961918       2.11622275       0.00000000
Si       2.21812461       0.21657718       2.56928434       0.00000000
Si      -2.50638268       2.63186781       0.10120875       0.00000000
Si      -2.54386597      -2.69677043      -0.08017343       0.00000000
Si       0.06055645       2.62913109      -2.76814247       0.00000000
Si      -2.70095044      -0.06979125      -2.71924484       0.00000000
