10
Lattice="16.290000149 0.0 0.0 0.0 16.290000149 0.0 0.0 0.0 29.1751946751" Properties=species:S:1:pos:R:3:initial_magmoms:R:1 pbc="T T T"
Si       1.36435267       1.35552349       1.34742719       0.00000000
Si       1.36982611      -1.36337527      -1.33657402       0.00000000
Si      -1.34925184       1.35852085      -1.36612849       0.00000000
Si      -1.34952877      -1.34801380       1.37648568       0.00000000
Si      -0.01024641       2.72021825       2.67994586       0.00000000
Si       2.71544528      -0.02145393       2.68837749       0.00000000
Si       2.72186354       0.01133784      -2.68330100       0.00000000
Si      -2.69723306      -2.71052570       0.02529489       0.00000000
Si       0.02301777      -2.72065808      -2.69844293       0.00000000
Si      -2.70645320       0.00081450      -2.72006175       0.00000000
