10
Lattice="16.290000149 0.0 0.0 0.0 16.290000149 0.0 0.0 0.0 29.1751946751" Properties=species:S:1:pos:R:3:initial_magmoms:R:1 pbc="T T T"
Si      -1.37839465       1.34765542       1.32140292       0.00000000
Si      -1.36920709      -1.36210465      -1.32849249       0.00000000
Si       1.35246097       1.39033522      -1.32665445       0.00000000
Si       1.35711991      -1.32945949       1.38660948       0.00000000
Si       0.04170240       2.65887011       2.63416998       0.00000000
Si       0.01487277      -2.67739184      -2.68791069       0.00000000
Si       2.70350471      -2.67946067       0.02080191       0.00000000
Si      -2.72585459       0.00848709      -2.66565001       0.00000000
Si      -2.72793971      -0.01003464       2.67370237       0.00000000
Si       2.69436602       0.05229090      -2.70906270       0.00000000
