10
Lattice="16.290000149 0.0 0.0 0.0 16.290000149 0.0 0.0 0.0 29.1751946751" Properties=species:S:1:pos:R:3:initial_magmoms:R:1 pbc="T T T"
Si      -1.36809937      -1.34765542      -1.34010422       0.00000000
Si      -1.36441783       1.34679205       1.35294130       0.00000000
Si       1.32473539      -1.38175039       1.36245242       0.00000000
Si       1.38668105       1.32719518      -1.37146755       0.00000000
Si       0.07493400      -2.67644214      -2.62763473       0.00000000
Si       2.69415263      -0.01334151       2.68928192       0.00000000
Si      -0.00723276       2.71070489       2.68758976       0.00000000
Si      -2.69586470       2.71277372      -0.02112284       0.00000000
Si       0.05509278       2.73763227      -2.67839957       0.00000000
Si       2.71842310       2.70456356      -0.02132707       0.00000000
