10
Lattice="16.290000149 0.0 0.0 0.0 16.290000149 0.0 0.0 0.0 29.1751946751" Properties=species:S:1:pos:R:3:initial_magmoms:R:1 pbc="T T T"
Si      -1.83042587      -1.29181330       0.63657357       0.00000000
Si       1.82208539      -1.45841113      -0.16883685       0.00000000
Si      -1.03493629       0.82762975      -1.95065352       0.00000000
Si       0.64676188       1.77220541       1.58858935       0.00000000
H        0.00508248      -1.13347450       3.11917841       0.00000000
Si      -2.55852371       2.09295551      -0.72873801       0.00000000
Si       3.44492778       0.22687083      -0.09756185       0.00000000
Si      -3.48342105       0.36339732       0.54878541       0.00000000
Si      -1.35275419      -1.71155774       2.84624447       0.00000000
Si       2.88039783       1.26402256       1.91047927       0.00000000
