10
Lattice="16.290000149 0.0 0.0 0.0 16.290000149 0.0 0.0 0.0 29.1751946751" Properties=species:S:1:pos:R:3:initial_magmoms:R:1 pbc="T T T"
Si      -1.33113736      -1.33799871       1.33344352       0.00000000
Si       1.49302738      -1.23966087      -1.28264951       0.00000000
Si      -1.25315713       1.37090125      -1.41118083       0.00000000
Si       1.42561936       1.43283583       1.22587458       0.00000000
Si       0.65155114       2.16572294      -2.53013999       0.00000000
H       -0.57288673      -0.46744155      -3.32431796       0.00000000
Si       2.34512471       0.49057335      -2.66526753       0.00000000
Si      -2.66463677       0.08120565       2.61595590       0.00000000
Si       0.09694179      -2.68635134       2.59827573       0.00000000
Si      -2.69143382      -2.62177052      -0.07371405       0.00000000
