10
Lattice="16.290000149 0.0 0.0 0.0 16.290000149 0.0 0.0 0.0 29.1751946751" Properties=species:S:1:pos:R:3:initial_magmoms:R:1 pbc="T T T"
Si       1.35718507       1.36391284       1.33464846       0.00000000
Si       1.36441783      -1.34679205      -1.35294130       0.00000000
Si      -1.33144687       1.36598167      -1.37406414       0.00000000
Si      -1.35648460      -1.37600002       1.35731758       0.00000000
Si       2.69390990      -0.00972513       2.68805656       0.00000000
Si      -0.00368154      -2.69444747      -2.69304552       0.00000000
Si      -2.70545951       0.00164529      -2.68338853       0.00000000
Si      -2.71552673       2.68126886      -0.01464595       0.00000000
Si       0.01080027       2.71391402       2.70045602       0.00000000
Si       2.69744483       2.71774217      -0.04557165       0.00000000
