10
Lattice="16.290000149 0.0 0.0 0.0 16.290000149 0.0 0.0 0.0 29.1751946751" Properties=species:S:1:pos:R:3:initial_magmoms:R:1 pbc="T T T"
Si      -1.35498592       1.35878149      -1.30316842       0.00000000
Si       1.38794059       1.35334063       1.29071061       0.00000000
Si       1.36107838      -1.34744365      -1.33386073       0.00000000
Si      -1.34793235      -1.30712590       1.39253204       0.00000000
H       -0.44559666      -2.20802807       2.20342740       0.00000000
Si       2.60978834      -0.17922258       2.53369061       0.00000000
Si      -2.66530466      -0.07118730      -2.62646773       0.00000000
Si      -2.55324575       2.76245823       0.17157932       0.00000000
Si       2.60087771      -2.73670374       0.03973662       0.00000000
Si       0.01708821       2.61167798      -2.73587471       0.00000000
