10
Lattice="16.290000149 0.0 0.0 0.0 16.290000149 0.0 0.0 0.0 29.1751946751" Properties=species:S:1:pos:R:3:initial_magmoms:R:1 pbc="T T T"
Si       1.91954846      -1.06130491       0.77527245       0.00000000
Si      -1.25294536      -1.31969201      -1.47124672       0.00000000
Si       1.16429518       1.43730907      -1.50576097       0.00000000
Si      -0.97840999       0.40558191       2.15301267       0.00000000
H       -1.88217920       1.96598473       0.65792982       0.00000000
Si       0.05134608       2.55480308       2.53815441       0.00000000
Si      -2.60187140      -2.60568978      -0.09794113       0.00000000
Si       3.66902931      -0.73951062      -0.71485062       0.00000000
Si       2.60496650       2.76740387      -0.29644915       0.00000000
Si       2.68640021       0.12054926      -2.70252746       0.00000000
