10
Lattice="16.290000149 0.0 0.0 0.0 16.290000149 0.0 0.0 0.0 29.1751946751" Properties=species:S:1:pos:R:3:initial_magmoms:R:1 pbc="T T T"
Si      -0.73436950       1.32612004      -1.79103603       0.00000000
Si       1.99860383      -0.88235112      -0.96806213       0.00000000
Si      -0.62397217       1.06797241       2.04588135       0.00000000
Si      -1.51736464      -1.84868370      -0.07115830       0.00000000
H        2.46176111       1.41714856       1.02699603       0.00000000
H        1.26802990      -0.78529530       2.83133594       0.00000000
Si      -2.49251663       2.29690631      -0.53128029       0.00000000
Si       0.81016687      -2.03105937      -2.66372445       0.00000000
Si      -0.62651341      -0.40656582      -3.59461739       0.00000000
Si       2.56888415      -2.60566697       0.57492639       0.00000000
