10
Lattice="16.290000149 0.0 0.0 0.0 16.290000149 0.0 0.0 0.0 29.1751946751" Properties=species:S:1:pos:R:3:initial_magmoms:R:1 pbc="T T T"
Si      -0.84492973      -0.93519262      -0.80826959       0.00000000
H        1.43879797       0.91150696       0.55117778       0.00000000
H        0.80651791      -0.74590282       1.65522549       0.00000000
Si       2.08547840       1.73864801      -0.52497845       0.00000000
Si      -1.09418302       2.74901898      -0.05502442       0.00000000
Si      -0.80651791       1.86517244       2.18732270       0.00000000
Si      -2.13990329       0.35885241      -2.23458651       0.00000000
Si       0.58437118      -2.37920339      -1.92999748       0.00000000
Si      -2.67704975      -1.75975985       0.35570397       0.00000000
Si       1.99278830      -1.25672464       2.45407150       0.00000000
