10
Lattice="16.290000149 0.0 0.0 0.0 16.290000149 0.0 0.0 0.0 29.1751946751" Properties=species:S:1:pos:R:3:initial_magmoms:R:1 pbc="T T T"
Si       1.36590022      -1.34454403      -1.32703373       0.00000000
Si      -1.17360329      -1.53808552       1.30771975       0.00000000
Si       1.53772714       1.30794040       1.19548278       0.00000000
Si      -1.03636492       1.55447326      -1.46733724       0.00000000
H        2.72373689      -0.76646080      -1.05409978       0.00000000
Si       0.14535567       2.47063916       2.69482521       0.00000000
Si      -1.39828800      -3.38050083      -0.13461435       0.00000000
Si       2.31142070       2.81326836      -0.51260817       0.00000000
Si       0.91230517      -3.55465722      -0.72409916       0.00000000
Si      -2.64673406      -0.34756344       2.64662778       0.00000000
