10
Lattice="16.290000149 0.0 0.0 0.0 16.290000149 0.0 0.0 0.0 29.1751946751" Properties=species:S:1:pos:R:3:initial_magmoms:R:1 pbc="T T T"
Si       1.82860139       1.01906983      -0.94893196       0.00000000
Si       1.40577814      -1.36445041       1.25274201       0.00000000
Si      -1.31448898       1.49262740       1.20709450       0.00000000
Si      -1.30002346      -1.18024309      -1.55833496       0.00000000
Si       0.95944843       2.25605914      -2.64991583       0.00000000
Si      -2.66688479       0.09775629       2.51464796       0.00000000
Si      -2.61985556      -2.58103649      -0.21383375       0.00000000
Si       0.05105286      -2.70417260       2.56707578       0.00000000
Si       2.73455346      -2.52680708      -0.30553139       0.00000000
Si       2.82440910       0.09733275       2.47946267       0.00000000
