10
Lattice="16.290000149 0.0 0.0 0.0 16.290000149 0.0 0.0 0.0 29.1751946751" Properties=species:S:1:pos:R:3:initial_magmoms:R:1 pbc="T T T"
Si      -1.35472528      -1.33972219       1.31433377       0.00000000
Si      -1.40577814       1.36445041      -1.25274201       0.00000000
Si       1.32877531      -1.16235667      -1.55827341       0.00000000
Si       1.41863095       1.46178316       1.22672066       0.00000000
Si       0.42282324       2.38352024      -2.20167397       0.00000000
Si       2.15164838       0.82360612      -2.65847962       0.00000000
Si       0.08149887      -2.65676870       2.59544574       0.00000000
Si      -2.68933241       0.10443519       2.60119325       0.00000000
Si      -2.65720853      -2.63283869      -0.16452768       0.00000000
Si       2.76552075      -2.51791274      -0.22341489       0.00000000
