10
Lattice="16.290000149 0.0 0.0 0.0 16.290000149 0.0 0.0 0.0 29.1751946751" Properties=species:S:1:pos:R:3:initial_magmoms:R:1 pbc="T T T"
Si       1.35506737       1.35452980      -1.33496938       0.00000000
Si       1.39553173      -1.45049419       1.19335299       0.00000000
Si      -1.37722177      -1.36614457      -1.33601969       0.00000000
Si      -1.30450321       1.34609158       1.43197691       0.00000000
Si      -0.01990638      -2.77671198       2.43186918       0.00000000
Si       2.66199779       2.66853823       0.11156594       0.00000000
Si      -0.01928736       2.70078917      -2.67247701       0.00000000
Si       2.70842429      -0.03003876      -2.67250618       0.00000000
Si      -2.70493823       2.68669018       0.07042892       0.00000000
Si      -2.64854225      -0.03155373       2.74629025       0.00000000
