10
Lattice="16.290000149 0.0 0.0 0.0 16.290000149 0.0 0.0 0.0 29.1751946751" Properties=species:S:1:pos:R:3:initial_magmoms:R:1 pbc="T T T"
Si      -2.26716566       0.49213719      -0.09767855       0.00000000
Si       0.27159829      -0.82406224      -2.15715554       0.00000000
Si       1.27359619       1.99733810       0.13341817       0.00000000
Si       1.03636492      -1.55447326       1.46733724       0.00000000
Si      -2.51099438       1.21115174       2.12803870       0.00000000
Si       3.34778562       1.25879510       0.95472907       0.00000000
Si       2.57409207      -0.24653286       2.66282002       0.00000000
Si       1.19649562       0.90549595      -3.43467897       0.00000000
Si       1.92459347      -2.47927286      -2.06936738       0.00000000
Si       2.40226515      -2.89901730       0.14030351       0.00000000
