10
Lattice="16.290000149 0.0 0.0 0.0 16.290000149 0.0 0.0 0.0 29.1751946751" Properties=species:S:1:pos:R:3:initial_magmoms:R:1 pbc="T T T"
Si      -1.34343631      -1.34640598      -1.38885597       0.00000000
Si       1.30851055       1.34613557      -1.42366197       0.00000000
Si       1.42482115      -1.36388515       1.29774183       0.00000000
Si      -1.41898933       1.35498104       1.33660319       0.00000000
Si       0.07589511      -2.64988292       2.67104742       0.00000000
Si      -2.68079320      -2.69591846      -0.01867212       0.00000000
Si       2.60226236       2.78237601      -0.11036976       0.00000000
Si      -0.10674837       2.82269376       2.61602301       0.00000000
Si       2.67776651      -0.04419314       2.76898855       0.00000000
Si       2.73383669      -0.01595606      -2.72236659       0.00000000
