10
Lattice="16.290000149 0.0 0.0 0.0 16.290000149 0.0 0.0 0.0 29.1751946751" Properties=species:S:1:pos:R:3:initial_magmoms:R:1 pbc="T T T"
Si       0.62954335      -0.40413861       2.14761526       0.00000000
Si       1.83212003       0.82456723      -1.16397357       0.00000000
Si      -0.87703732      -1.88915132      -1.07084635       0.00000000
Si      -1.60173055       1.77728789       0.08904269       0.00000000
H        2.67704975       1.75975985      -0.35570397       0.00000000
Si      -2.27323694      -0.60663961      -2.42997279       0.00000000
Si       0.53714646       2.11861226      -2.59029048       0.00000000
Si      -1.49547088      -0.98873785       3.14978319       0.00000000
Si      -3.45624933       0.84553246      -1.01833099       0.00000000
Si      -0.54481905       3.53918172      -1.09205671       0.00000000
