10
Lattice="16.290000149 0.0 0.0 0.0 16.290000149 0.0 0.0 0.0 29.1751946751" Properties=species:S:1:pos:R:3:initial_magmoms:R:1 pbc="T T T"
Si      -2.05537448       0.61221241      -0.89401549       0.00000000
Si       1.03534354      -1.62115149      -1.31469262       0.00000000
Si      -0.52546653      -1.25366538       1.93329428       0.00000000
Si       1.51736464       1.84868370       0.07115830       0.00000000
Si       2.32753151      -0.18237567      -2.59256615       0.00000000
Si      -3.30116853      -1.17255747      -0.05169844       0.00000000
Si       2.56477907      -2.60892823       0.19392752       0.00000000
Si       0.78299515       3.17480374      -1.71987773       0.00000000
Si      -2.17113122       0.26473205       2.99500878       0.00000000
Si       0.89339248       2.91665611       2.11703965       0.00000000
