10
Lattice="16.290000149 0.0 0.0 0.0 16.290000149 0.0 0.0 0.0 29.1751946751" Properties=species:S:1:pos:R:3:initial_magmoms:R:1 pbc="T T T"
Si      -1.35580042      -1.34452774       1.37426837       0.00000000
Si       1.33379263       1.35149986       1.39477853       0.00000000
Si      -1.37503891       1.35014779      -1.35734676       0.00000000
Si       1.36226755      -1.37406151      -1.35008213       0.00000000
Si       2.71531496      -2.69171075       0.05709586       0.00000000
Si       2.69762402       2.71265969       0.06587759       0.00000000
Si      -2.71300178      -2.70223409       0.02033511       0.00000000
Si      -0.02288745       2.74735740      -2.67809615       0.00000000
Si       2.72974790      -0.02461419      -2.69984334       0.00000000
Si      -0.00654858      -2.70304859       2.74039686       0.00000000
