10
Lattice="16.290000149 0.0 0.0 0.0 16.290000149 0.0 0.0 0.0 29.1751946751" Properties=species:S:1:pos:R:3:initial_magmoms:R:1 pbc="T T T"
Si       1.34614045       1.31629717       1.40462224       0.00000000
Si       1.33074640      -1.43483950      -1.31597633       0.00000000
Si      -1.33941268      -1.41934771       1.35776688       0.00000000
Si      -1.43674543       1.35555607      -1.33485852       0.00000000
H        0.49506939       1.66571768      -3.22626888       0.00000000
Si      -2.76552075       2.51791274       0.22341489       0.00000000
Si       2.65621484       2.65685015      -0.01816448       0.00000000
Si      -0.06805962      -2.75053395      -2.68524407       0.00000000
Si      -2.74149299      -0.08594604      -2.70791320       0.00000000
Si       0.00452862       2.63710667       2.81293806       0.00000000
