10
Lattice="16.290000149 0.0 0.0 0.0 16.290000149 0.0 0.0 0.0 29.1751946751" Properties=species:S:1:pos:R:3:initial_magmoms:R:1 pbc="T T T"
Si      -0.72391132      -0.07441272      -1.32329930       0.00000000
H       -2.11160756       0.77548546       0.29872482       0.00000000
H        1.14453541       1.63367524      -1.12377015       0.00000000
H        1.79382224       1.20834334      -1.08350838       0.00000000
Si      -1.50591277       0.85778254       1.69715025       0.00000000
Si       0.25622541      -2.67776651       1.44212987       0.00000000
Si       2.24831324      -2.08067285       0.27191281       0.00000000
Si       0.88516603      -0.86330485      -2.84854931       0.00000000
Si       0.38527479       2.35610417       2.02426253       0.00000000
Si      -1.03638610      -1.17369451       2.75903981       0.00000000
