10
Lattice="16.290000149 0.0 0.0 0.0 16.290000149 0.0 0.0 0.0 29.1751946751" Properties=species:S:1:pos:R:3:initial_magmoms:R:1 pbc="T T T"
Si      -0.70737697       2.19677983       0.40413480       0.00000000
Si       1.88302628       0.53520795       1.30666944       0.00000000
Si      -1.59640372      -1.49135766       0.94906908       0.00000000
Si       0.72247780       0.33826022      -2.26772953       0.00000000
H        1.45832968      -2.19146929      -1.27387653       0.00000000
H        1.72763597       1.92610518       1.91307587       0.00000000
Si       2.53954586       1.66080624      -1.68057874       0.00000000
Si       1.23632956       3.21420436      -0.49740789       0.00000000
H       -0.44390250      -2.59695997      -2.52102857       0.00000000
Si       3.73928808       0.53035679      -0.06348522       0.00000000
