10
Lattice="16.290000149 0.0 0.0 0.0 16.290000149 0.0 0.0 0.0 29.1751946751" Properties=species:S:1:pos:R:3:initial_magmoms:R:1 pbc="T T T"
H        0.64350388      -0.84170431       1.07977395       0.00000000
Si      -1.43176069       1.22738635       1.28464217       0.00000000
Si      -1.44067132      -1.33009480      -1.20931182       0.00000000
Si       1.50188914       1.36109467      -1.16140615       0.00000000
Si       0.05497875       2.24038001       2.75445930       0.00000000
Si       0.08143371      -2.64685461      -2.40607830       0.00000000
Si       1.06406281      -3.50691449      -0.41840147       0.00000000
Si       0.16021215       2.70783785      -2.54538986       0.00000000
Si      -2.68047065       0.05916528      -2.58290916       0.00000000
Si       2.79265989      -0.58933963       2.39146153       0.00000000
