10
Lattice="16.290000149 0.0 0.0 0.0 16.290000149 0.0 0.0 0.0 29.1751946751" Properties=species:S:1:pos:R:3:initial_magmoms:R:1 pbc="T T T"
Si       1.32739066       1.37637469      -1.33261874       0.00000000
Si      -1.25591014       1.38821752       1.39122208       0.00000000
Si      -1.75399319      -0.95130343      -1.23483982       0.00000000
Si       1.43528833      -1.39186648       1.24127033       0.00000000
H        1.46786894      -1.18881163      -2.16507369       0.00000000
Si      -3.44756676       0.72384616      -1.09971228       0.00000000
Si      -2.58189986       2.65799045      -0.06477768       0.00000000
Si      -2.60609051      -2.68153765       0.14777820       0.00000000
Si      -2.67349853      -0.00904095       2.65630228       0.00000000
Si       2.79973789      -0.00037467       2.57096483       0.00000000
