10
Lattice="16.290000149 0.0 0.0 0.0 16.290000149 0.0 0.0 0.0 29.1751946751" Properties=species:S:1:pos:R:3:initial_magmoms:R:1 pbc="T T T"
Si       1.34568596       1.34752510      -1.37225528       0.00000000
Si      -1.33226118       1.34822557       1.38900184       0.00000000
Si       1.35027974      -1.36337527       1.35661738       0.00000000
Si      -1.36431846      -1.34192134      -1.36490313       0.00000000
Si       2.67599253       2.68895774       0.04490062       0.00000000
Si      -2.69900705       2.70466130       0.04551330       0.00000000
Si      -2.70855299      -2.69663033       0.00986122       0.00000000
Si       2.68977387      -0.00122175       2.72300844       0.00000000
Si      -0.00742172      -2.71824716      -2.70071860       0.00000000
Si      -2.67936131      -0.00804726       2.74538582       0.00000000
