10
Lattice="16.290000149 0.0 0.0 0.0 16.290000149 0.0 0.0 0.0 29.1751946751" Properties=species:S:1:pos:R:3:initial_magmoms:R:1 pbc="T T T"
Si      -1.31289175      -1.33545633       1.36644942       0.00000000
Si      -1.46997622       1.29152285      -1.27262199       0.00000000
Si       1.23097422       1.36131410       1.44662285       0.00000000
Si       1.37725843      -1.39571304      -1.30036760       0.00000000
Si       2.61035931      -0.08435174       2.61126745       0.00000000
Si      -0.08754165       2.62835683      -2.65476766       0.00000000
Si       2.63906229       2.65518646       0.05490772       0.00000000
Si      -2.61201926       0.07689711       2.70961703       0.00000000
Si       2.71461531      -0.04620056      -2.67055144       0.00000000
Si      -2.58769829      -2.79935719       0.06698625       0.00000000
