10
Lattice="16.290000149 0.0 0.0 0.0 16.290000149 0.0 0.0 0.0 29.1751946751" Properties=species:S:1:pos:R:3:initial_magmoms:R:1 pbc="T T T"
Si       1.32033709      -1.44085051       1.27527693       0.00000000
Si      -1.34812783      -1.36260964      -1.34783564       0.00000000
Si       1.38903202       1.35941680      -1.31305881       0.00000000
Si      -1.29059155       1.36860436       1.41196272       0.00000000
Si       2.74634742      -0.05115060       2.45483006       0.00000000
Si       0.01889640       2.70083315      -2.66626269       0.00000000
Si      -2.66460419       2.71994132       0.06616934       0.00000000
Si      -2.71529867      -0.00607617      -2.67615308       0.00000000
Si      -0.06403599      -2.77640247       2.61514775       0.00000000
Si       2.74102059      -0.01174509      -2.66267414       0.00000000
