10
Lattice="16.290000149 0.0 0.0 0.0 16.290000149 0.0 0.0 0.0 29.1751946751" Properties=species:S:1:pos:R:3:initial_magmoms:R:1 pbc="T T T"
Si       0.89332732      -0.76253491      -0.96890822       0.00000000
Si      -1.10894176       1.67580119       0.79120415       0.00000000
Si      -1.93181483      -0.31016160       1.89141037       0.00000000
Si      -1.34671060       2.19810746      -1.50800746       0.00000000
Si       2.29776268      -1.92062360       0.49802057       0.00000000
Si      -0.69968809      -1.88630057      -2.31277603       0.00000000
Si       2.04670820       0.85986766      -2.16465357       0.00000000
Si       0.81277327       2.47200752       1.91362144       0.00000000
Si      -0.49506939      -1.66571768       3.22626888       0.00000000
Si      -3.23656239      -1.75166372       0.51835568       0.00000000
