10
Lattice="16.290000149 0.0 0.0 0.0 16.290000149 0.0 0.0 0.0 29.1751946751" Properties=species:S:1:pos:R:3:initial_magmoms:R:1 pbc="T T T"
Si       1.35498592      -1.35878149       1.30316842       0.00000000
Si       1.37207413       1.25289649      -1.43270628       0.00000000
Si      -1.31031874      -1.42996879      -1.32329930       0.00000000
Si      -1.19825983       1.40367673       1.47474774       0.00000000
Si      -2.56888578       2.64231947       0.03028385       0.00000000
Si       2.72228708       2.59678892      -0.12093118       0.00000000
Si      -2.63957950      -0.07099182      -2.68884429       0.00000000
Si       2.74292652      -0.00544086       2.59387903       0.00000000
Si      -2.56642762      -0.02463048       2.77345236       0.00000000
Si       0.00705357      -2.66590739       2.69570046       0.00000000
