10
Lattice="16.290000149 0.0 0.0 0.0 16.290000149 0.0 0.0 0.0 29.1751946751" Properties=species:S:1:pos:R:3:initial_magmoms:R:1 pbc="T T T"
Si       0.11779299      -2.30548788      -0.23550217       0.00000000
Si      -1.74948086      -0.32179429       1.49012307       0.00000000
Si      -0.98262910       0.86005988      -1.98767684       0.00000000
Si       1.83645317       1.18488900       1.00628164       0.00000000
H       -0.42055893       2.66521018       1.49817542       0.00000000
Si      -2.50473413       2.17681969      -0.79091035       0.00000000
Si       1.71768278      -2.23158015      -2.02790943       0.00000000
Si      -1.06406281       3.50691449       0.41840147       0.00000000
Si       0.40545810      -3.18933442       2.00684494       0.00000000
Si      -3.66902931       0.73951062       0.71485062       0.00000000
