10
Lattice="16.290000149 0.0 0.0 0.0 16.290000149 0.0 0.0 0.0 29.1751946751" Properties=species:S:1:pos:R:3:initial_magmoms:R:1 pbc="T T T"
Si       2.07418943      -0.73854299       0.82131091       0.00000000
Si       0.76163896       0.57040087      -2.16345739       0.00000000
Si      -1.27359619      -1.99733810      -0.13341817       0.00000000
Si      -0.60470110       1.50971975       1.78508429       0.00000000
H        0.68344696       1.55764493       2.59364563       0.00000000
H        0.15089427       1.87344287      -2.61651898       0.00000000
Si      -0.07266969       3.51705502       0.03089653       0.00000000
Si       1.30049587      -2.24387096       2.52940185       0.00000000
Si       3.12818502      -1.41259225      -1.25076977       0.00000000
Si       2.99968950       1.34173727       1.62304526       0.00000000
