10
Lattice="10.86 0.0 0.0 0.0 10.86 0.0 0.0 0.0 10.86" Properties=species:S:1:pos:R:3:initial_magmoms:R:1 pbc="T T T"
Si       1.33674654      -1.25787036      -1.36273452       0.00000000
Si      -0.80537760      -1.40566410       1.71197040       0.00000000
Si       1.33674654       1.45712964       1.35226548       0.00000000
Si      -1.37825346       1.45712964      -1.36273452       0.00000000
Si      -2.71105782      -2.45059158       0.21253020       0.00000000
Si      -2.68590606      -0.03683712       2.55082938       0.00000000
Si      -0.02075346      -2.61537036      -2.72023452       0.00000000
Si       2.69424654       0.09962964      -2.72023452       0.00000000
Si       2.85886242      -2.54543196      -0.14006142       0.00000000
Si      -2.73575346       0.09962964      -2.72023452       0.00000000
