10
Lattice="10.86 0.0 0.0 0.0 10.86 0.0 0.0 0.0 10.86" Properties=species:S:1:pos:R:3:initial_magmoms:R:1 pbc="T T T"
Si       0.75960270       1.82925840       0.88326552       0.00000000
Si       0.75960270      -0.88574160      -1.83173448       0.00000000
Si      -1.95539730      -0.88574160       0.88326552       0.00000000
Si       2.11710270       0.47175840       2.24076552       0.00000000
Si       2.11710270      -2.24324160      -0.47423448       0.00000000
Si      -0.59789730      -2.24324160       2.24076552       0.00000000
Si       3.47460270      -0.88574160       0.88326552       0.00000000
Si       0.75960270      -0.88574160       3.59826552       0.00000000
Si       0.75960270      -3.60074160       0.88326552       0.00000000
Si       2.11710270       3.18675840      -0.47423448       0.00000000
