10
Lattice="16.28999089631971 0.0 0.0 0.0 16.28999089631971 0.0 0.0 0.0 34.51877397758722" Properties=species:S:1:pos:R:3:initial_magmoms:R:1 pbc="T T T"
Si       0.15263730      -1.87564689      -1.44944413       0.00000000
Si      -0.22512780      -0.65638926       2.29149557       0.00000000
Si       2.23941888       0.93634920      -0.04570288       0.00000000
Si      -2.19696388       1.00998000      -0.52634256       0.00000000
Si      -2.43100720      -1.49934789       2.50061042       0.00000000
Si      -1.64305338      -3.36600270      -0.85782653       0.00000000
Si      -0.26018388       1.34338743       3.63645131       0.00000000
Si       2.83089249       1.63543455       2.11486291       0.00000000
Si       1.52915859      -2.15959788       2.90009642       0.00000000
Si      -2.68641697       2.77187123       0.97315382       0.00000000
