10
Lattice="16.28999089631971 0.0 0.0 0.0 16.28999089631971 0.0 0.0 0.0 34.51877397758722" Properties=species:S:1:pos:R:3:initial_magmoms:R:1 pbc="T T T"
Si       0.24472793      -1.90048914       1.34550804       0.00000000
Si      -0.87583741      -0.81739962      -2.02148957       0.00000000
Si       2.20587940       0.84295863      -0.20911485       0.00000000
Si      -1.28712733       1.67821209       1.12023840       0.00000000
Si       0.02375245       3.61553292       0.70245744       0.00000000
Si      -1.66396390       1.04410755      -3.14545600       0.00000000
Si       2.17082332       2.84273532       1.13584089       0.00000000
Si      -2.58271990      -2.34295812      -1.45779768       0.00000000
Si       2.43100720       1.49934789      -2.50061042       0.00000000
Si      -1.34458216       1.06196139       3.41297665       0.00000000
