10
Lattice="16.28999089631971 0.0 0.0 0.0 16.28999089631971 0.0 0.0 0.0 34.51877397758722" Properties=species:S:1:pos:R:3:initial_magmoms:R:1 pbc="T T T"
Si      -2.14707087       0.77279760      -0.43338345       0.00000000
Si      -0.02559159      -0.09971109       2.33098507       0.00000000
Si       1.62872307       1.66258739      -0.30086580       0.00000000
Si       0.03505608      -1.99977669      -1.34495574       0.00000000
Si       3.09107637       0.29204712      -1.52158841       0.00000000
Si      -3.45795065      -1.16452323      -0.01560249       0.00000000
Si      -2.34327903       2.65816052       0.95375426       0.00000000
Si      -1.26607020      -2.02667148       2.88425229       0.00000000
Si      -2.17082332      -2.84273532      -1.13584089       0.00000000
Si      -1.39036942       1.94904541       2.99868209       0.00000000
