10
Lattice="16.28999089631971 0.0 0.0 0.0 16.28999089631971 0.0 0.0 0.0 34.51877397758722" Properties=species:S:1:pos:R:3:initial_magmoms:R:1 pbc="T T T"
Si       0.98253135       1.65988584       1.37139856       0.00000000
Si      -1.73379846      -0.98419293       1.37635891       0.00000000
Si       1.60091604      -1.92450060      -0.13596953       0.00000000
Si      -0.26259480       2.05905600      -1.76732770       0.00000000
Si       0.62869626       0.49397796      -3.32633448       0.00000000
Si       2.33911368      -0.83261448      -2.44707177       0.00000000
Si       2.19462138       0.14848335       2.81079772       0.00000000
Si      -1.69512763      -0.06255360      -3.39571725       0.00000000
Si      -0.56136969      -2.56311747       2.82490210       0.00000000
Si      -2.64860739      -1.80079434      -2.16557101       0.00000000
