10
Lattice="16.28999089631971 0.0 0.0 0.0 16.28999089631971 0.0 0.0 0.0 34.51877397758722" Properties=species:S:1:pos:R:3:initial_magmoms:R:1 pbc="T T T"
Si       1.19553939       1.48941799       1.39531866       0.00000000
Si       1.30592043      -1.36739907      -1.46535729       0.00000000
Si      -1.42708056       1.33511749      -1.44171192       0.00000000
Si      -0.32382891      -1.67923854       1.82293747       0.00000000
Si       2.67449220       2.61482893      -0.02571650       0.00000000
Si       2.76871356      -2.59550217      -0.07335244       0.00000000
Si       2.65584015      -0.01730016      -2.83288833       0.00000000
Si      -0.05492988       2.69864098      -2.82598457       0.00000000
Si      -2.92342688       2.62846366      -0.02243722       0.00000000
Si      -0.06250473      -2.73085578      -2.82967808       0.00000000
