10
Lattice="16.28999089631971 0.0 0.0 0.0 16.28999089631971 0.0 0.0 0.0 34.51877397758722" Properties=species:S:1:pos:R:3:initial_magmoms:R:1 pbc="T T T"
Si       2.28831169       0.10736739       0.56790319       0.00000000
Si      -1.14680038       1.32229255      -1.59849628       0.00000000
Si       0.85577886      -2.01424221      -1.06048637       0.00000000
Si      -0.64286742       0.78413544       2.28113993       0.00000000
Si      -1.67096371       2.61337931       1.07312025       0.00000000
Si       3.17960275      -1.45771065      -0.99110359       0.00000000
Si      -2.76392497      -0.29822103      -2.38455824       0.00000000
Si      -3.11971486      -1.96121826      -0.31446621       0.00000000
Si      -0.09770090      -3.75248295       0.16965987       0.00000000
Si       0.43765203       1.97949142      -3.25377597       0.00000000
