10
Lattice="16.28999089631971 0.0 0.0 0.0 16.28999089631971 0.0 0.0 0.0 34.51877397758722" Properties=species:S:1:pos:R:3:initial_magmoms:R:1 pbc="T T T"
Si      -1.47895281      -1.12541094       1.42103516       0.00000000
Si       1.32998076      -1.27310911      -1.46256127       0.00000000
Si       1.72664226       0.84616776       1.38913980       0.00000000
Si      -1.37538099       1.43550738      -1.41899855       0.00000000
Si       0.19411164      -1.79892425       2.96578568       0.00000000
Si       2.74220973      -2.48090331      -0.10562751       0.00000000
Si      -2.67449220      -2.61482893       0.02571650       0.00000000
Si       2.66224212       2.71810053       0.17642555       0.00000000
Si      -0.01865205      -2.63212910      -2.80717182       0.00000000
Si       2.69405649       0.08539218      -2.80078585       0.00000000
