10
Lattice="16.28999089631971 0.0 0.0 0.0 16.28999089631971 0.0 0.0 0.0 34.51877397758722" Properties=species:S:1:pos:R:3:initial_magmoms:R:1 pbc="T T T"
Si      -1.35369900       1.35413883       1.35990238       0.00000000
Si       1.36013355      -1.36190916       1.35803836       0.00000000
Si       1.34724816       1.36748034      -1.36940540       0.00000000
Si      -1.35938421      -1.34772057      -1.37872548       0.00000000
Si       0.12831633      -2.59124541      -2.72242474       0.00000000
Si       2.71150308      -0.04088790      -2.65975932       0.00000000
Si      -2.71160082       2.71358820      -0.00289958       0.00000000
Si      -2.71161711      -0.00312768       2.71631836       0.00000000
Si       0.00345348       2.71151937       2.71642192       0.00000000
Si       2.71974582       2.71147050       0.00241632       0.00000000
