10
Lattice="16.28999089631971 0.0 0.0 0.0 16.28999089631971 0.0 0.0 0.0 34.51877397758722" Properties=species:S:1:pos:R:3:initial_magmoms:R:1 pbc="T T T"
Si      -1.23149142      -1.51171200      -1.40255522       0.00000000
Si       1.32835176      -1.32613632       1.55847174       0.00000000
Si      -1.37021706       1.38129426       1.52974865       0.00000000
Si       1.37005416       1.51998732      -1.58881863       0.00000000
Si       2.29734612      -0.46698543      -2.54243481       0.00000000
Si      -2.34979992       0.09990657      -2.74992728       0.00000000
Si       0.78437979      -2.49380352      -2.52341496       0.00000000
Si       2.69260668      -2.73450456       0.26811782       0.00000000
Si       2.80463301       2.65442292       0.14433688       0.00000000
Si      -2.76060114      -2.71710684       0.01453586       0.00000000
