10
Lattice="16.28999089631971 0.0 0.0 0.0 16.28999089631971 0.0 0.0 0.0 34.51877397758722" Properties=species:S:1:pos:R:3:initial_magmoms:R:1 pbc="T T T"
Si       1.35720135       1.35583299      -1.35755510       0.00000000
Si       1.35622395      -1.35664749       1.36097246       0.00000000
Si      -1.35816246      -1.35894438      -1.35772770       0.00000000
Si      -1.36062225       1.35529542       1.36073083       0.00000000
Si       2.71415835       2.71353933       0.00013808       0.00000000
Si      -2.71649597       2.71192662       0.00044874       0.00000000
Si      -0.00052128       2.71386513      -2.71542087       0.00000000
Si      -2.71460795      -2.71505430       0.00048326       0.00000000
Si       2.71448415      -0.00159642      -2.71528280       0.00000000
Si      -2.71557558      -0.00161271      -2.71514472       0.00000000
