10
Lattice="16.28999089631971 0.0 0.0 0.0 16.28999089631971 0.0 0.0 0.0 34.51877397758722" Properties=species:S:1:pos:R:3:initial_magmoms:R:1 pbc="T T T"
Si      -1.77826527       1.26939825       0.71950973       0.00000000
Si       1.97798067       0.27316701       1.14802603       0.00000000
Si       0.07174116       0.62424909      -2.22863685       0.00000000
Si      -0.53295993      -2.10088872       0.98136929       0.00000000
Si      -2.75794587       0.93589308      -1.50260307       0.00000000
Si       2.94252786      -1.63962108       0.04121544       0.00000000
Si      -0.94289778      -1.29748221       3.15263591       0.00000000
Si       1.18757358      -0.30462300       3.33282401       0.00000000
Si       1.28650275      -3.42459783       0.30210848       0.00000000
Si      -2.78277183      -0.03626154       2.40575278       0.00000000
