10
Lattice="16.28999089631971 0.0 0.0 0.0 16.28999089631971 0.0 0.0 0.0 34.51877397758722" Properties=species:S:1:pos:R:3:initial_magmoms:R:1 pbc="T T T"
Si       1.31597136      -1.39286016      -1.31716811       0.00000000
Si       0.96808212       1.68507018       1.28523823       0.00000000
Si      -1.41146334       1.34439741      -1.32255305       0.00000000
Si      -1.67666454      -1.17604026       1.19038059       0.00000000
Si      -1.03247649       1.45349154       2.87765920       0.00000000
Si       2.46192399       0.59108265       2.77196266       0.00000000
Si       0.45352989      -0.20103489       3.75091563       0.00000000
Si       2.65989636      -0.01177767      -2.69294914       0.00000000
Si      -0.06076170       2.70677898      -2.69170646       0.00000000
Si      -0.05735709      -2.72365542      -2.69077445       0.00000000
