10
Lattice="16.28999089631971 0.0 0.0 0.0 16.28999089631971 0.0 0.0 0.0 34.51877397758722" Properties=species:S:1:pos:R:3:initial_magmoms:R:1 pbc="T T T"
Si      -0.96808212      -1.68507018      -1.28523823       0.00000000
Si       1.49384187      -1.09398753       1.48672443       0.00000000
Si       1.73407050       1.08924714      -1.29024345       0.00000000
Si      -2.00055861      -0.23157864       1.59242097       0.00000000
Si      -0.51455223      -1.88610507       2.46567740       0.00000000
Si      -1.52435304       2.05193727       2.28231357       0.00000000
Si      -2.37954546      -0.34067277      -2.60779128       0.00000000
Si       0.33492240       2.38969413      -2.61773269       0.00000000
Si       2.36967372       0.98334585       2.53506018       0.00000000
Si      -2.47155138       2.87889912       0.19489311       0.00000000
