10
Lattice="16.28999089631971 0.0 0.0 0.0 16.28999089631971 0.0 0.0 0.0 34.51877397758722" Properties=species:S:1:pos:R:3:initial_magmoms:R:1 pbc="T T T"
Si       2.14583283       0.71913834      -0.49506853       0.00000000
Si      -0.13752018      -0.51636042       2.28334914       0.00000000
Si      -1.80006129       1.48097277      -0.40939289       0.00000000
Si      -0.65497203      -2.12441148      -0.87625957       0.00000000
Si      -2.31422256      -1.41885900       1.78310279       0.00000000
Si      -3.59575197      -0.00938304       0.18222471       0.00000000
Si       2.22638688       2.78381439       0.70204322       0.00000000
Si      -1.66159629       2.07347265      -2.73195537       0.00000000
Si       2.27403513       1.35057132      -2.78404423       0.00000000
Si      -1.65947859      -3.43007127       0.80998348       0.00000000
