10
Lattice="16.28999089631971 0.0 0.0 0.0 16.28999089631971 0.0 0.0 0.0 34.51877397758722" Properties=species:S:1:pos:R:3:initial_magmoms:R:1 pbc="T T T"
Si      -1.75428639       1.50320862      -0.60860084       0.00000000
Si       0.28601982      -1.71338220      -1.65679852       0.00000000
Si       1.71475056       1.68598242       0.27176646       0.00000000
Si      -0.33702381      -1.32649470       2.02811718       0.00000000
Si       3.48540840       0.90344340      -1.10025202       0.00000000
Si       2.14959582      -3.04908075      -0.80411529       0.00000000
Si      -2.46141900      -0.71275266       2.86361005       0.00000000
Si      -1.89068256      -2.61588078      -2.15704487       0.00000000
Si      -1.52915859       2.15959788      -2.90009642       0.00000000
Si       2.27814021       2.04648012       2.53578507       0.00000000
