10
Lattice="16.28999089631971 0.0 0.0 0.0 16.28999089631971 0.0 0.0 0.0 34.51877397758722" Properties=species:S:1:pos:R:3:initial_magmoms:R:1 pbc="T T T"
Si      -1.60091604       1.92450060       0.13596953       0.00000000
Si       1.97032437       0.78071454       1.33993123       0.00000000
Si      -0.86416821      -1.90549017       1.48566612       0.00000000
Si       0.73819764       1.09188612      -2.31110225       0.00000000
Si      -0.93672387      -2.22250986      -2.70761963       0.00000000
Si       0.59370534       2.07298395       2.94676725       0.00000000
Si      -2.16228573      -0.63861687       2.96087162       0.00000000
Si       0.90370404      -0.92356155      -3.52675059       0.00000000
Si      -3.33471450       0.94030767       1.51232844       0.00000000
Si      -0.61838469       3.58438644       1.50736808       0.00000000
