10
Lattice="16.28999089631971 0.0 0.0 0.0 16.28999089631971 0.0 0.0 0.0 34.51877397758722" Properties=species:S:1:pos:R:3:initial_magmoms:R:1 pbc="T T T"
Si       1.33628499       1.33986879       1.38929168       0.00000000
Si      -1.37741724      -1.37412666       1.38131784       0.00000000
Si      -1.21209003       1.51140249      -1.43939916       0.00000000
Si       1.37661903      -1.29226941      -1.60683602       0.00000000
Si      -2.19462138      -0.14848335      -2.81079772       0.00000000
Si      -0.59370534      -2.07298395      -2.94676725       0.00000000
Si       2.69200395       2.68124638       0.01323105       0.00000000
Si       2.69687466      -2.73067641      -0.01619277       0.00000000
Si      -2.73406473       2.70493821       0.00969288       0.00000000
Si       2.69619048      -0.01298313       2.74408528       0.00000000
