10
Lattice="16.28999089631971 0.0 0.0 0.0 16.28999089631971 0.0 0.0 0.0 34.51877397758722" Properties=species:S:1:pos:R:3:initial_magmoms:R:1 pbc="T T T"
Si      -1.33628499      -1.33986879      -1.38929168       0.00000000
Si       1.35990549      -1.35285192       1.35479360       0.00000000
Si      -1.35495333       1.35813583       1.35600176       0.00000000
Si       1.35571896       1.34137759      -1.37606063       0.00000000
Si      -2.54837502       0.17153370      -2.82869084       0.00000000
Si       0.00149868      -2.71314837       2.71207255       0.00000000
Si      -2.71334385       0.00206883       2.71248678       0.00000000
Si      -2.71370223      -2.71399545      -0.00797384       0.00000000
Si      -2.71384884       2.71469170      -0.00510878       0.00000000
Si       2.71658556       0.00184077       2.71252129       0.00000000
