10
Lattice="16.28999089631971 0.0 0.0 0.0 16.28999089631971 0.0 0.0 0.0 34.51877397758722" Properties=species:S:1:pos:R:3:initial_magmoms:R:1 pbc="T T T"
Si      -0.56338965      -0.36049770      -2.26401861       0.00000000
Si       1.13173146      -2.03662467       0.46683216       0.00000000
Si       1.84251303       1.50009723       0.08032523       0.00000000
Si      -1.90900881       0.92527200       1.44319623       0.00000000
Si       1.86035058       1.71027081       2.40841073       0.00000000
Si      -0.61498008      -3.56736339       0.78247201       0.00000000
Si       2.34144315      -1.73721447       2.45345775       0.00000000
Si       1.19047320       3.55339539      -0.88105768       0.00000000
Si      -0.97640631       1.74855231      -3.32101858       0.00000000
Si      -1.35187452       3.15775853       1.92238612       0.00000000
