10
Lattice="16.28999089631971 0.0 0.0 0.0 16.28999089631971 0.0 0.0 0.0 34.51877397758722" Properties=species:S:1:pos:R:3:initial_magmoms:R:1 pbc="T T T"
Si      -1.35677781      -1.35644875       1.35897037       0.00000000
Si       1.35803214       1.35822762       1.35883230       0.00000000
Si      -1.36013355       1.36190916      -1.35803836       0.00000000
Si       1.36378251      -1.35875542      -1.35941912       0.00000000
Si      -2.71313208      -2.71507183       0.00224372       0.00000000
Si       0.00061902      -2.71355162       2.71562799       0.00000000
Si       2.71581993      -2.71367684       0.00165690       0.00000000
Si       2.72403009       0.00102627      -2.70564860       0.00000000
Si       2.71534752       2.71440270       0.00245083       0.00000000
Si      -2.71383255       2.71604799       0.00186401       0.00000000
