10
Lattice="16.28999089631971 0.0 0.0 0.0 16.28999089631971 0.0 0.0 0.0 34.51877397758722" Properties=species:S:1:pos:R:3:initial_magmoms:R:1 pbc="T T T"
Si      -0.95290961       0.70911510      -2.04492783       0.00000000
Si      -1.58445241      -0.65719887       1.65527969       0.00000000
Si       0.85178944       2.07631851       0.84488198       0.00000000
Si       1.36477783      -2.04875650      -0.66769702       0.00000000
Si      -0.75670145      -1.17624781      -3.43206554       0.00000000
Si       2.89416448       1.44973995       1.83256822       0.00000000
Si       0.44602509       2.52228984      -2.82042704       0.00000000
Si      -0.43765203      -1.97949142       3.25377597       0.00000000
Si       1.39036942      -1.94904541      -2.99868209       0.00000000
Si       1.60016833       3.44425497      -0.96089965       0.00000000
