10
Lattice="16.28999089631971 0.0 0.0 0.0 16.28999089631971 0.0 0.0 0.0 34.51877397758722" Properties=species:S:1:pos:R:3:initial_magmoms:R:1 pbc="T T T"
Si       1.44585153      -1.13937147       1.44761463       0.00000000
Si      -1.25587755      -1.51803252      -1.38741386       0.00000000
Si      -1.27597941       1.53544653       1.37719630       0.00000000
Si       0.99621495      -0.77919957      -2.15832207       0.00000000
Si       0.81917523       1.52731782      -3.01566534       0.00000000
Si      -2.29584744       0.37356228      -2.71977024       0.00000000
Si      -0.00016290      -2.44716525       2.82432218       0.00000000
Si       3.19720572      -2.01499155       0.08533046       0.00000000
Si      -2.63046033       0.30252159       2.88349085       0.00000000
Si       2.70969489       0.29274759       2.86033219       0.00000000
