10
Lattice="16.28999089631971 0.0 0.0 0.0 16.28999089631971 0.0 0.0 0.0 34.51877397758722" Properties=species:S:1:pos:R:3:initial_magmoms:R:1 pbc="T T T"
Si      -1.35725022      -1.35824391       1.35662309       0.00000000
Si      -1.35738054       1.35729909      -1.35800385       0.00000000
Si       1.35733167      -1.35790182      -1.35755510       0.00000000
Si       1.35868374       1.35808101       1.35693376       0.00000000
Si       2.71464705      -0.00172674      -2.71393656       0.00000000
Si      -2.71453302      -0.00008145      -2.71452338       0.00000000
Si      -2.71466334       2.71472850      -0.00027615       0.00000000
Si      -2.71477737      -2.71528236      -0.00027615       0.00000000
Si       0.00161271       2.71412577       2.71607673       0.00000000
Si       2.71500543      -2.71520091      -0.00069038       0.00000000
