10
Lattice="16.28999089631971 0.0 0.0 0.0 16.28999089631971 0.0 0.0 0.0 34.51877397758722" Properties=species:S:1:pos:R:3:initial_magmoms:R:1 pbc="T T T"
Si      -2.15782227       0.09739791      -0.87418844       0.00000000
Si      -0.60849666      -0.29476755       2.23712847       0.00000000
Si       0.91724103      -1.95002703      -1.02910878       0.00000000
Si       1.35171162       1.89589536      -0.58012284       0.00000000
Si      -0.82368756       0.41726835      -3.17117250       0.00000000
Si       0.30560040      -2.43032139       2.51134577       0.00000000
Si       0.85960701      -1.26931680      -3.31176754       0.00000000
Si       1.25680608       1.78051329      -2.96295514       0.00000000
Si       3.48125445       1.21971375       0.41087720       0.00000000
Si      -3.12236946       2.01018600       0.23262215       0.00000000
