10
Lattice="16.28999089631971 0.0 0.0 0.0 16.28999089631971 0.0 0.0 0.0 34.51877397758722" Properties=species:S:1:pos:R:3:initial_magmoms:R:1 pbc="T T T"
Si      -2.19716262      -0.61739100       0.52268357       0.00000000
Si       0.99137682      -0.44437491      -2.12835976       0.00000000
Si      -0.17208756       2.36270160       0.45033218       0.00000000
Si       1.03996989      -1.89159480       1.33235638       0.00000000
Si       3.11502267       1.15375554      -0.29589510       0.00000000
Si       3.29206239      -1.15276185       0.56144817       0.00000000
Si       2.29584744      -0.37356228       2.71977024       0.00000000
Si      -2.24283978       0.16966035       2.81172831       0.00000000
Si      -0.72987345       2.19647844       2.79270845       0.00000000
Si       1.59907527       1.76510295      -2.77872834       0.00000000
