10
Lattice="16.28999089631971 0.0 0.0 0.0 16.28999089631971 0.0 0.0 0.0 34.51877397758722" Properties=species:S:1:pos:R:3:initial_magmoms:R:1 pbc="T T T"
Si       1.26956115      -1.31057937       1.43770084       0.00000000
Si       1.75979241       1.02770352      -1.14444781       0.00000000
Si      -1.46098494       1.43628930       1.38233614       0.00000000
Si      -1.43457885      -1.13443560      -1.73315551       0.00000000
Si       2.64137463      -2.54785374      -0.06240653       0.00000000
Si       0.77229261       2.34123138      -2.89139910       0.00000000
Si       2.61087975       0.08047260       2.78512812       0.00000000
Si      -0.10378359      -2.63656908       2.78595657       0.00000000
Si      -2.80463301      -2.65442292      -0.14433688       0.00000000
Si       3.55208337      -0.63029268      -1.52124464       0.00000000
