10
Lattice="16.28999089631971 0.0 0.0 0.0 16.28999089631971 0.0 0.0 0.0 34.51877397758722" Properties=species:S:1:pos:R:3:initial_magmoms:R:1 pbc="T T T"
Si      -1.22818455       1.28963043      -1.64212803       0.00000000
Si      -1.52578656      -1.24379037       1.42800796       0.00000000
Si       0.86758911       1.95592401       1.16273103       0.00000000
Si       1.46419407      -1.39035150      -1.62334981       0.00000000
Si       2.64591954       2.57399919      -0.26258446       0.00000000
Si      -2.54928726       2.73320136      -0.32527059       0.00000000
Si      -2.78951589       0.54996669       2.45169729       0.00000000
Si      -2.62785393      -2.84675895      -0.03344871       0.00000000
Si      -2.59154352      -0.05289363      -3.01321450       0.00000000
Si       2.87383293      -2.75589333      -0.25726857       0.00000000
