10
Lattice="16.28999089631971 0.0 0.0 0.0 16.28999089631971 0.0 0.0 0.0 34.51877397758722" Properties=species:S:1:pos:R:3:initial_magmoms:R:1 pbc="T T T"
Si      -0.21092292       0.83711052       2.21375925       0.00000000
Si      -2.02136094       1.06570809      -0.67891563       0.00000000
Si       1.72695177       0.99673623      -1.30891812       0.00000000
Si       0.18507069      -2.39417388      -0.29917438       0.00000000
Si       0.93496455      -0.27425844      -3.36264825       0.00000000
Si      -3.47244156      -0.05740596       0.82972823       0.00000000
Si       1.93328091       0.35507313       3.04417786       0.00000000
Si      -2.22306372      -0.32964444       2.85967491       0.00000000
Si       0.09016515      -2.50955595      -2.68200668       0.00000000
Si      -1.69315002       3.41311338      -0.00207113       0.00000000
