10
Lattice="16.28999089631971 0.0 0.0 0.0 16.28999089631971 0.0 0.0 0.0 34.51877397758722" Properties=species:S:1:pos:R:3:initial_magmoms:R:1 pbc="T T T"
Si       1.29326310       1.40287851       1.38903624       0.00000000
Si      -1.28329362       1.37515293      -1.44940961       0.00000000
Si       1.42803027      -1.32642954      -1.45199852       0.00000000
Si      -1.31295771      -1.43106021       1.50405286       0.00000000
Si      -2.26613448       0.76347972       2.52411772       0.00000000
Si      -0.71221509       2.55241494       2.29263469       0.00000000
Si      -2.58957243      -2.63520072      -0.13027393       0.00000000
Si       0.82730394      -3.41247807       1.35772770       0.00000000
Si       2.68874595       2.71205694      -0.02564746       0.00000000
Si       2.60563437      -2.79440289      -0.06758780       0.00000000
