10
Lattice="16.28999089631971 0.0 0.0 0.0 16.28999089631971 0.0 0.0 0.0 34.51877397758722" Properties=species:S:1:pos:R:3:initial_magmoms:R:1 pbc="T T T"
Si       1.93780953      -0.14649597       1.29231458       0.00000000
Si      -1.55391939      -1.78893522       0.23148303       0.00000000
Si      -0.95695605       1.97342666      -0.96970194       0.00000000
Si       2.00547819      -1.14953643      -0.90359845       0.00000000
Si      -1.87595640       0.32341109      -2.41313980       0.00000000
Si       0.71221509      -2.55241494      -2.29263469       0.00000000
Si      -3.33270594      -0.73029699      -0.95209736       0.00000000
Si       0.74779245       2.85256538      -2.32504784       0.00000000
Si      -0.57107853      -1.17726201      -3.74204430       0.00000000
Si      -2.64662001      -1.70751780       2.45894624       0.00000000
