10
Lattice="16.28999089631971 0.0 0.0 0.0 16.28999089631971 0.0 0.0 0.0 34.51877397758722" Properties=species:S:1:pos:R:3:initial_magmoms:R:1 pbc="T T T"
Si      -1.87066215       1.38012138       0.30338567       0.00000000
Si       0.90953586      -0.24386130       2.15414529       0.00000000
Si       1.63074303       1.51860267      -0.82296255       0.00000000
Si      -0.32821092      -2.34740529      -0.67684450       0.00000000
Si       3.50415819      -0.00627165      -0.81319373       0.00000000
Si      -3.02273982       1.11353553      -1.73508714       0.00000000
Si       1.48222710      -2.57600286       2.21583038       0.00000000
Si       1.69315002      -3.41311338       0.00207113       0.00000000
Si       2.68833870       1.28467827       2.42028519       0.00000000
Si      -3.47074740       0.21146049       1.66542822       0.00000000
