10
Lattice="16.28999089631971 0.0 0.0 0.0 16.28999089631971 0.0 0.0 0.0 34.51877397758722" Properties=species:S:1:pos:R:3:initial_magmoms:R:1 pbc="T T T"
Si      -1.22326497       1.79293834       0.76690403       0.00000000
Si      -0.01783755      -0.21017358      -2.32808549       0.00000000
Si       2.16013545       0.67486132       0.63908094       0.00000000
Si      -0.71879625      -1.77585435       1.85752530       0.00000000
Si      -1.15706241       0.49909302       2.77572520       0.00000000
Si       2.27255274      -0.93302604      -2.28207194       0.00000000
Si       0.48109257      -3.44748528       0.04504703       0.00000000
Si      -1.86035058      -1.71027081      -2.40841073       0.00000000
Si      -3.21222510       1.44748772      -0.48602461       0.00000000
Si       2.55249639      -2.53259001      -0.52327039       0.00000000
