10
Lattice="16.28999089631971 0.0 0.0 0.0 16.28999089631971 0.0 0.0 0.0 34.51877397758722" Properties=species:S:1:pos:R:3:initial_magmoms:R:1 pbc="T T T"
Si      -1.21393080       1.42783479      -1.44899539       0.00000000
Si       1.49634631      -1.29334618      -1.41927470       0.00000000
Si      -1.88315658      -0.84119931       1.29935642       0.00000000
Si       1.10285973       1.64600676       1.42931967       0.00000000
Si       0.55331984      -0.46928232       2.77123776       0.00000000
Si       2.66638697       2.64059271      -0.06244450       0.00000000
Si      -2.52814284       2.79533142      -0.05067359       0.00000000
Si      -2.67294465      -2.65830713      -0.01404915       0.00000000
Si      -2.56378536       0.07149681      -2.80465195       0.00000000
Si      -0.69561558       3.54147858       1.32124133       0.00000000
