10
Lattice="16.28999089631971 0.0 0.0 0.0 16.28999089631971 0.0 0.0 0.0 34.51877397758722" Properties=species:S:1:pos:R:3:initial_magmoms:R:1 pbc="T T T"
Si       1.35644549       1.35610992      -1.35821096       0.00000000
Si      -1.35858601      -1.35822762      -1.35783125       0.00000000
Si      -1.36247271       1.35816246       1.35821096       0.00000000
Si       1.36011074      -1.35786924       1.36138669       0.00000000
Si      -2.71760924       2.71070487      -0.00172594       0.00000000
Si      -0.00096763       2.71344159      -2.71562799       0.00000000
Si       2.71460795       2.71505430      -0.00048326       0.00000000
Si       2.71402151      -0.00118917      -2.71586962       0.00000000
Si      -2.71536122      -0.00158013      -2.71545539       0.00000000
Si      -0.00082753      -2.71620600      -2.71566250       0.00000000
