10
Lattice="16.28999089631971 0.0 0.0 0.0 16.28999089631971 0.0 0.0 0.0 34.51877397758722" Properties=species:S:1:pos:R:3:initial_magmoms:R:1 pbc="T T T"
Si      -0.26717229       2.35312145       0.11957310       0.00000000
Si       1.97966084      -1.30664601       0.14463374       0.00000000
Si      -0.28846332      -0.49974625      -2.33022566       0.00000000
Si      -1.59159816      -0.76082119       1.71233926       0.00000000
Si       0.75362427      -2.64928410      -1.54185094       0.00000000
Si      -2.44087731      -2.47283082      -0.00686924       0.00000000
Si      -2.50993062      -1.31687613      -2.08562549       0.00000000
Si      -0.36587340       0.33570758       3.64180173       0.00000000
Si      -2.62787022       2.64534776       0.07000411       0.00000000
Si      -3.36357549       0.87602570       1.56870656       0.00000000
