10
Lattice="16.28999089631971 0.0 0.0 0.0 16.28999089631971 0.0 0.0 0.0 34.51877397758722" Properties=species:S:1:pos:R:3:initial_magmoms:R:1 pbc="T T T"
Si      -1.36819710      -1.33742529      -1.36132455       0.00000000
Si      -1.35597960       1.35819504       1.36073083       0.00000000
Si       1.36024895      -1.35650088       1.36031661       0.00000000
Si       1.35407983       1.36487394      -1.38969900       0.00000000
Si      -2.71526607      -2.71244790       0.00472907       0.00000000
Si      -2.71235016       2.71782360       0.00314121       0.00000000
Si      -2.71336014       0.00107514       2.71800978       0.00000000
Si       0.00223173      -2.71420722       2.71828593       0.00000000
Si       2.71465912       2.71959921      -0.00017259       0.00000000
Si       0.00187335       2.71619460       2.71811334       0.00000000
