10
Lattice="16.28999089631971 0.0 0.0 0.0 16.28999089631971 0.0 0.0 0.0 34.51877397758722" Properties=species:S:1:pos:R:3:initial_magmoms:R:1 pbc="T T T"
Si       0.09490554       0.11538207       2.38283230       0.00000000
Si       1.61668476      -1.67904288      -0.64222215       0.00000000
Si       0.84479940       2.23529751      -0.68064157       0.00000000
Si      -2.08049364      -1.36324494      -0.20821736       0.00000000
Si      -0.39719907      -3.04983009      -0.34881241       0.00000000
Si      -0.09016515       2.50955595       2.68200668       0.00000000
Si      -1.25680608      -1.78051329       2.96295514       0.00000000
Si      -3.01329162      -0.42088473      -2.18372790       0.00000000
Si      -0.61991595       2.77882965      -2.44900483       0.00000000
Si      -1.48750506       0.82290564      -3.61173586       0.00000000
