10
Lattice="16.28999089631971 0.0 0.0 0.0 16.28999089631971 0.0 0.0 0.0 34.51877397758722" Properties=species:S:1:pos:R:3:initial_magmoms:R:1 pbc="T T T"
Si       1.67666454       1.17604026      -1.19038059       0.00000000
Si      -1.29352374      -1.69347582      -1.13915470       0.00000000
Si       0.64418805       2.62953180       1.68727861       0.00000000
Si      -1.77795576      -1.42563564       2.33885536       0.00000000
Si       2.13019443       0.97500537       2.56053505       0.00000000
Si      -2.45656947      -0.17562249      -2.50716899       0.00000000
Si       0.26520120       2.52043767      -2.51293363       0.00000000
Si      -0.69949260       1.28664936       3.28656883       0.00000000
Si       0.26262738      -2.91219588      -2.49898804       0.00000000
Si       2.64474666       2.86111044       0.09485764       0.00000000
