10
Lattice="16.28999089631971 0.0 0.0 0.0 16.28999089631971 0.0 0.0 0.0 34.51877397758722" Properties=species:S:1:pos:R:3:initial_magmoms:R:1 pbc="T T T"
Si      -1.25356437       1.37624436      -1.41875347       0.00000000
Si       1.34037378       1.35532800       1.36473156       0.00000000
Si      -1.37500632      -1.35254241       1.36587068       0.00000000
Si       1.38456855      -1.25276616      -1.56013554       0.00000000
Si      -2.22609366      -0.40531149      -2.56370525       0.00000000
Si      -0.43380270      -2.06330769      -2.94050208       0.00000000
Si       0.52411446       2.17680012      -2.89428142       0.00000000
Si       2.53935036       0.64944972      -2.76062465       0.00000000
Si       2.69142367      -2.70549207      -0.02696953       0.00000000
Si       2.69583981       0.00309510       2.72449586       0.00000000
