10
Lattice="16.28999089631971 0.0 0.0 0.0 16.28999089631971 0.0 0.0 0.0 34.51877397758722" Properties=species:S:1:pos:R:3:initial_magmoms:R:1 pbc="T T T"
Si       0.90402984       1.87486497      -1.12251664       0.00000000
Si      -1.94543325      -0.70491717      -1.21471634       0.00000000
Si       1.98646029      -1.36179513       0.27718591       0.00000000
Si       1.35882939       2.05146486       1.37474546       0.00000000
Si      -0.40589793      -1.99006785      -2.57113232       0.00000000
Si       2.15355985       0.10656918       2.49767632       0.00000000
Si      -2.25904833      -1.86652449       1.97896242       0.00000000
Si       2.34165396       0.73269162      -2.59215426       0.00000000
Si       1.05184825      -3.28688217      -1.00984730       0.00000000
Si      -3.72376368      -1.32299235       0.21059916       0.00000000
