10
Lattice="16.28999089631971 0.0 0.0 0.0 16.28999089631971 0.0 0.0 0.0 34.51877397758722" Properties=species:S:1:pos:R:3:initial_magmoms:R:1 pbc="T T T"
Si       1.67847503       0.95182470       1.30545731       0.00000000
Si       0.76366610       0.13522329      -2.23647262       0.00000000
Si      -1.15478181      -1.90221588       1.20048911       0.00000000
Si      -2.01523590       1.52735040      -0.13365677       0.00000000
Si       0.16033868       2.08599966       2.75044161       0.00000000
Si      -1.34817669      -0.22270059      -3.27321005       0.00000000
Si      -1.26667782       3.34179576       1.24555685       0.00000000
Si      -2.53935036      -0.64944972       2.76062465       0.00000000
Si       3.41227349       1.93601763      -0.07090160       0.00000000
Si       1.79531180      -1.77811866      -3.03882745       0.00000000
