10
Lattice="16.28999089631971 0.0 0.0 0.0 16.28999089631971 0.0 0.0 0.0 34.51877397758722" Properties=species:S:1:pos:R:3:initial_magmoms:R:1 pbc="T T T"
Si       1.35112518       1.33931493      -1.37845278       0.00000000
Si       1.35584928      -1.35811359       1.35914297       0.00000000
Si      -1.35948195       1.35741312       1.35990238       0.00000000
Si      -1.35549090      -1.35503478      -1.38670967       0.00000000
Si      -0.09363492       2.64242438      -2.71872087       0.00000000
Si      -2.71151937       2.71233454      -0.00117364       0.00000000
Si       2.71363707      -0.00055386       2.71659451       0.00000000
Si       2.71536381       2.71511361      -0.00138075       0.00000000
Si      -0.00223173       2.71468845       2.71707777       0.00000000
Si      -0.00133578      -2.71625976       2.71687066       0.00000000
