10
Lattice="16.28999089631971 0.0 0.0 0.0 16.28999089631971 0.0 0.0 0.0 34.51877397758722" Properties=species:S:1:pos:R:3:initial_magmoms:R:1 pbc="T T T"
Si      -1.86064380      -1.15722531       0.81740502       0.00000000
Si       2.10595491      -0.57857193       0.84988721       0.00000000
Si      -0.18736758       2.34960511       0.15181365       0.00000000
Si      -0.12772989      -0.25702362      -2.35411266       0.00000000
Si       0.88967835       2.78543917      -1.94868944       0.00000000
Si      -3.36921183      -0.86874570      -0.95986408       0.00000000
Si      -1.90653273      -1.78556319      -2.62025256       0.00000000
Si       3.41683469       1.35874890       0.43210625       0.00000000
Si      -2.52569934      -0.09330912       2.79125866       0.00000000
Si       2.04850008      -1.19482263       3.14262546       0.00000000
