10
Lattice="16.28999089631971 0.0 0.0 0.0 16.28999089631971 0.0 0.0 0.0 34.51877397758722" Properties=species:S:1:pos:R:3:initial_magmoms:R:1 pbc="T T T"
Si       0.96594813       0.43098453       2.09097590       0.00000000
Si      -2.27574069       0.51390063       0.47194094       0.00000000
Si       0.94718205       1.40107032      -1.70947420       0.00000000
Si       0.22877676      -2.38257540      -0.38781864       0.00000000
Si      -1.91925196       2.82647790       1.09566102       0.00000000
Si      -0.13768308      -0.90479547       3.71605165       0.00000000
Si      -0.85543677       1.90037511      -3.21552915       0.00000000
Si       3.17848851       0.60315354      -2.10606061       0.00000000
Si       2.96950410      -0.58622823       2.48821818       0.00000000
Si       2.53553850      -2.94502023      -0.55613228       0.00000000
