10
Lattice="16.28999089631971 0.0 0.0 0.0 16.28999089631971 0.0 0.0 0.0 34.51877397758722" Properties=species:S:1:pos:R:3:initial_magmoms:R:1 pbc="T T T"
Si      -1.37863477       0.18471231      -1.86111526       0.00000000
Si       2.27574069      -0.51390063      -0.47194094       0.00000000
Si       0.35648873       2.31257727       0.62372008       0.00000000
Si      -1.23049351      -1.44137178       1.54299006       0.00000000
Si      -1.68317632       2.50411509      -1.83591654       0.00000000
Si       3.24168882      -0.08291610       1.61903496       0.00000000
Si       0.48407364      -2.93198823       2.36750596       0.00000000
Si       1.40064189       2.30394357       2.72222107       0.00000000
Si       2.50451745      -2.89647603      -0.85975958       0.00000000
Si      -0.33231178      -0.12931002      -3.96320621       0.00000000
