10
Lattice="16.28999089631971 0.0 0.0 0.0 16.28999089631971 0.0 0.0 0.0 34.51877397758722" Properties=species:S:1:pos:R:3:initial_magmoms:R:1 pbc="T T T"
Si       0.61477157       1.90524582      -1.30867649       0.00000000
Si       1.35218729      -1.81739385      -0.78678685       0.00000000
Si      -2.30596746      -0.71237799      -0.31922980       0.00000000
Si       1.76162015       0.10919187       1.71903590       0.00000000
Si      -1.25337282      -2.26527111       1.63826193       0.00000000
Si       0.27289171      -1.09273320       3.05970929       0.00000000
Si       2.89592543       1.47237165      -1.18433980       0.00000000
Si       2.45581850      -0.48161385      -2.41186260       0.00000000
Si       3.42978131      -0.95361660       0.17725400       0.00000000
Si      -2.01636384      -1.84006953      -2.48790751       0.00000000
