10
Lattice="16.28999089631971 0.0 0.0 0.0 16.28999089631971 0.0 0.0 0.0 34.51877397758722" Properties=species:S:1:pos:R:3:initial_magmoms:R:1 pbc="T T T"
Si       2.00355597      -1.01721276       0.39724227       0.00000000
Si      -0.96594813      -0.43098453      -2.09097590       0.00000000
Si       0.44010693       1.95398550       1.22752281       0.00000000
Si      -1.10363121      -1.33578000       1.62507575       0.00000000
Si       0.97396281      -0.47200275       2.58911661       0.00000000
Si      -1.84104693       2.38685967       1.10318611       0.00000000
Si      -2.45581850       0.48161385       2.41186260       0.00000000
Si      -3.24168882       0.08291610      -1.61903496       0.00000000
Si      -0.73717137      -2.81355993      -2.47879454       0.00000000
Si       2.12991750      -3.16376235      -0.38336572       0.00000000
