10
Lattice="16.28999089631971 0.0 0.0 0.0 16.28999089631971 0.0 0.0 0.0 34.51877397758722" Properties=species:S:1:pos:R:3:initial_magmoms:R:1 pbc="T T T"
Si      -1.35721275       1.35697329      -1.35838355       0.00000000
Si       1.35806472       1.35830907       1.35672665       0.00000000
Si       1.35760860      -1.35731538      -1.35865970       0.00000000
Si      -1.35836608      -1.35925389       1.35720991       0.00000000
Si       2.71094922       0.00260640       2.71680162       0.00000000
Si      -2.71440078       2.71445157      -0.00065586       0.00000000
Si       2.71489140       2.71539639      -0.00082845       0.00000000
Si      -2.71557506      -0.00014661      -2.71473050       0.00000000
Si       0.00039096      -2.71521720      -2.71517924       0.00000000
Si       2.71533123      -2.71534752      -0.00079393       0.00000000
