10
Lattice="16.28999089631971 0.0 0.0 0.0 16.28999089631971 0.0 0.0 0.0 34.51877397758722" Properties=species:S:1:pos:R:3:initial_magmoms:R:1 pbc="T T T"
Si      -1.35661470      -1.35661491      -1.35776221       0.00000000
Si       1.35587371      -1.35663120       1.36028209       0.00000000
Si       1.35836608       1.35925389      -1.35720991       0.00000000
Si      -1.35658542       1.36099692       1.36000594       0.00000000
Si       2.71649597      -2.71192662      -0.00044874       0.00000000
Si       0.00092038      -2.71353933      -2.71559347       0.00000000
Si      -2.71383159       0.00184077      -2.71559347       0.00000000
Si      -2.71448319       2.71648782      -0.00051778       0.00000000
Si      -0.00315700      -2.69658144       2.73450977       0.00000000
Si       0.00115333       2.71622718      -2.71559347       0.00000000
