10
Lattice="16.28999089631971 0.0 0.0 0.0 16.28999089631971 0.0 0.0 0.0 34.51877397758722" Properties=species:S:1:pos:R:3:initial_magmoms:R:1 pbc="T T T"
Si      -0.81749477       1.96211421       0.95875948       0.00000000
Si       2.32917026      -0.14906979      -0.16051239       0.00000000
Si      -0.72368537      -1.91760993       1.19762953       0.00000000
Si       0.41168902       3.16692261      -0.86738824       0.00000000
Si       1.25070710      -2.86135479      -1.10822586       0.00000000
Si       0.24458946       1.69855830      -3.08787865       0.00000000
Si       0.36807092       2.29946382       3.12008469       0.00000000
Si       3.30885086       0.18443538       2.06160041       0.00000000
Si       0.92443469      -2.73036690       2.71856208       0.00000000
Si      -1.48846358      -3.71763864      -0.12126452       0.00000000
