10
Lattice="16.28999089631971 0.0 0.0 0.0 16.28999089631971 0.0 0.0 0.0 34.51877397758722" Properties=species:S:1:pos:R:3:initial_magmoms:R:1 pbc="T T T"
Si       1.55903445       0.99194697      -1.41737617       0.00000000
Si       0.94719834      -0.82696185       2.08742047       0.00000000
Si      -1.15219170      -1.76546133      -1.30308445       0.00000000
Si      -1.53350802       1.90821060       0.47891374       0.00000000
Si       0.47099277      -3.11047776       1.39752786       0.00000000
Si      -0.89963154       0.07802910       3.36323507       0.00000000
Si       0.09624132       2.22005007      -2.80938103       0.00000000
Si      -0.64136988       2.43063090       2.74704009       0.00000000
Si      -2.79016912      -1.13736780       2.28994223       0.00000000
Si       2.47155138      -2.87889912      -0.19489311       0.00000000
