10
Lattice="10.86 0.0 0.0 0.0 10.86 0.0 0.0 0.0 10.86" Properties=species:S:1:pos:R:3:initial_magmoms:R:1 pbc="T T T"
Si       1.24058124       1.42599402      -1.46866296       0.00000000
Si      -1.47441876       1.42599402       1.24633704       0.00000000
Si      -1.47441876      -1.28900598      -1.46866296       0.00000000
Si       2.47531980       0.11742918       2.46746802       0.00000000
Si       2.50707444      -2.56967148      -0.03116820       0.00000000
Si       2.59808124       2.78349402      -0.11116296       0.00000000
Si      -0.11691876       2.78349402       2.60383704       0.00000000
Si       2.59808124       0.06849402      -2.82616296       0.00000000
Si      -2.83191876       0.06849402       2.60383704       0.00000000
Si      -0.11691876      -2.64650598      -2.82616296       0.00000000
