10
Lattice="10.86 0.0 0.0 0.0 10.86 0.0 0.0 0.0 10.86" Properties=species:S:1:pos:R:3:initial_magmoms:R:1 pbc="T T T"
Si       1.35750000       1.35750000       1.35750000       0.00000000
Si      -1.35750000      -1.35750000       1.35750000       0.00000000
Si       1.35750000      -1.35750000      -1.35750000       0.00000000
Si      -1.35750000       1.35750000      -1.35750000       0.00000000
Si       0.18012396      -2.57866356       2.59914552       0.00000000
Si      -0.36409236      -2.78892402      -2.44748562       0.00000000
Si      -0.06686502       2.51002836      -2.82653220       0.00000000
Si      -2.75668068      -2.58680856       0.24482784       0.00000000
Si      -2.82211218       2.54498670      -0.17076264       0.00000000
Si       2.71500000       0.00000000      -2.71500000       0.00000000
