10
Lattice="10.86 0.0 0.0 0.0 10.86 0.0 0.0 0.0 10.86" Properties=species:S:1:pos:R:3:initial_magmoms:R:1 pbc="T T T"
Si       1.46246190      -1.09958586      -1.55924622       0.00000000
Si       1.46246190       1.61541414       1.15575378       0.00000000
Si      -1.25253810       1.61541414      -1.55924622       0.00000000
Si      -2.42991414       0.39425058       2.39739930       0.00000000
Si      -0.08452338      -2.39744274      -2.68073670       0.00000000
Si       0.33089334      -2.58552708       2.62451448       0.00000000
Si       2.81996190      -2.45708586      -0.20174622       0.00000000
Si       2.81996190       0.25791414       2.51325378       0.00000000
Si       0.10496190       2.97291414       2.51325378       0.00000000
Si      -2.61003810       2.97291414      -0.20174622       0.00000000
