10
Lattice="10.86 0.0 0.0 0.0 10.86 0.0 0.0 0.0 10.86" Properties=species:S:1:pos:R:3:initial_magmoms:R:1 pbc="T T T"
Si       1.42436502      -1.15252836      -1.24596780       0.00000000
Si      -1.29063498      -1.15252836       1.46903220       0.00000000
Si      -1.29063498       1.56247164      -1.24596780       0.00000000
Si       0.06686502      -2.51002836      -2.60346780       0.00000000
Si      -2.64813498      -2.51002836       0.11153220       0.00000000
Si      -2.64813498       0.20497164      -2.60346780       0.00000000
Si       2.78186502      -2.51002836       0.11153220       0.00000000
Si       0.06686502      -2.51002836       2.82653220       0.00000000
Si       2.78186502       0.20497164      -2.60346780       0.00000000
Si      -2.75524716       0.03495834       2.65576956       0.00000000
