10
Lattice="16.290000149 0.0 0.0 0.0 16.290000149 0.0 0.0 0.0 29.1751946751" Properties=species:S:1:pos:R:3:initial_magmoms:R:1 pbc="T T T"
Si       1.32813023      -1.36086661       1.37453095       0.00000000
Si      -1.36999879      -1.36901161      -1.32542909       0.00000000
Si      -1.36543759       1.35195598       1.34920688       0.00000000
Si       1.36774751       1.36485766      -1.34442215       0.00000000
Si      -2.69549981       0.01415601      -2.68557667       0.00000000
Si       0.00954268      -2.71774543      -2.66620434       0.00000000
Si       2.68441935       0.00690696       2.71148424       0.00000000
Si      -0.02290537       2.71319726       2.70276086       0.00000000
Si       2.72661045       0.00935046      -2.69853046       0.00000000
Si       2.71238928      -2.71571733       0.03982414       0.00000000
