10
Lattice="16.290000149 0.0 0.0 0.0 16.290000149 0.0 0.0 0.0 29.1751946751" Properties=species:S:1:pos:R:3:initial_magmoms:R:1 pbc="T T T"
Si       1.22380255      -1.53270982       1.24087938       0.00000000
Si      -1.38751705      -1.34618932      -1.29715833       0.00000000
Si      -1.05829615       1.46331442       1.47959082       0.00000000
Si       1.37316556       1.32002758      -1.35734676       0.00000000
Si       0.75696373       2.21604275       2.86196990       0.00000000
Si      -2.37117242       0.11034846       2.86996390       0.00000000
Si      -0.02287116       2.60302799      -2.71635650       0.00000000
Si      -0.02897991      -2.69975801      -2.62842246       0.00000000
Si      -2.50453865       2.81147484       0.19334402       0.00000000
Si      -2.74584243       0.00690696      -2.60021005       0.00000000
