10
Lattice="16.290000149 0.0 0.0 0.0 16.290000149 0.0 0.0 0.0 29.1751946751" Properties=species:S:1:pos:R:3:initial_magmoms:R:1 pbc="T T T"
Si      -1.08576109      -1.16672239       1.70254766       0.00000000
Si       0.87936679      -1.77650597      -1.28840577       0.00000000
Si       1.87356179       1.45932337       0.15252792       0.00000000
Si      -1.59645259       1.30232035      -1.21325047       0.00000000
H        0.47428335       2.29056950       1.78184584       0.00000000
H       -1.24261750      -0.37071153       2.97849562       0.00000000
H        2.58939326       1.54277704       1.47842381       0.00000000
Si       1.99852238      -0.34073793      -2.84233499       0.00000000
Si      -3.29704716      -1.09739215       0.88969756       0.00000000
Si      -0.28357632       2.65528631      -2.60362355       0.00000000
