10
Lattice="16.290000149 0.0 0.0 0.0 16.290000149 0.0 0.0 0.0 29.1751946751" Properties=species:S:1:pos:R:3:initial_magmoms:R:1 pbc="T T T"
Si      -1.34304535       1.35672895      -1.36997962       0.00000000
Si       1.32683517      -1.34902378      -1.39655822       0.00000000
Si       1.34771081       1.37901367       1.35157007       0.00000000
Si      -1.34377840      -1.37230219       1.36265664       0.00000000
Si       2.66626577      -2.70858719      -0.03480601       0.00000000
Si      -2.68640021       2.72251514      -0.01884718       0.00000000
Si      -2.70940169      -2.71156826      -0.00997792       0.00000000
Si       2.71842635       0.03381804       2.70556168       0.00000000
Si      -2.72613153      -0.02808396       2.69879303       0.00000000
Si       2.70827768       2.72741844      -0.00353020       0.00000000
