10
Lattice="16.290000149 0.0 0.0 0.0 16.290000149 0.0 0.0 0.0 29.1751946751" Properties=species:S:1:pos:R:3:initial_magmoms:R:1 pbc="T T T"
Si      -1.52029684       1.31920494       1.19452000       0.00000000
Si       1.41016015       1.28559867      -1.38094949       0.00000000
Si      -1.23012307      -1.43360961      -1.42655032       0.00000000
Si       0.98591968      -0.85936104       1.98633478       0.00000000
Si      -0.08280207       2.64723091       2.40899582       0.00000000
Si      -0.76374037      -1.18098591       3.47526166       0.00000000
Si       1.09872793      -3.16510630       1.75258312       0.00000000
Si      -2.68076387      -0.12049550       2.69742180       0.00000000
Si      -2.57434130      -2.81066848      -0.11235367       0.00000000
Si       0.06147846       2.61862567      -2.78704800       0.00000000
