10
Lattice="16.290000149 0.0 0.0 0.0 16.290000149 0.0 0.0 0.0 29.1751946751" Properties=species:S:1:pos:R:3:initial_magmoms:R:1 pbc="T T T"
Si       1.31215951       1.36041049       1.34505233       0.00000000
Si      -1.37551132       1.26369676      -1.41707130       0.00000000
Si       1.28664937      -1.44873487      -1.32910225       0.00000000
Si      -1.42734610      -1.39009087       1.28145041       0.00000000
Si      -2.18553158      -0.59513887      -2.59900862       0.00000000
Si      -0.55241020      -2.33041484      -2.51547653       0.00000000
Si       2.62106102       2.64978029      -0.12529871       0.00000000
Si       2.62966214      -0.03056004       2.68655696       0.00000000
Si      -0.10622709       2.69128721       2.64757890       0.00000000
Si       2.53659737      -2.81877276       0.08425213       0.00000000
