10
Lattice="16.290000149 0.0 0.0 0.0 16.290000149 0.0 0.0 0.0 29.1751946751" Properties=species:S:1:pos:R:3:initial_magmoms:R:1 pbc="T T T"
Si      -1.37187865      -1.40660893      -1.31198808       0.00000000
Si      -1.34578207       1.27936774       1.46083117       0.00000000
Si       1.33986880      -1.33613839       1.42164889       0.00000000
Si       1.34113942       1.41846805      -1.35986458       0.00000000
Si       2.67079439      -0.02202408      -2.67417209       0.00000000
Si       0.05927931      -2.77850388      -2.59690742       0.00000000
Si      -2.68078016      -2.69597873       0.15836296       0.00000000
Si      -2.77917177       2.59887404       0.17799786       0.00000000
Si      -2.72129339      -0.04460202      -2.68780565       0.00000000
Si       2.68811066       2.75115297       0.02894179       0.00000000
