10
Lattice="16.290000149 0.0 0.0 0.0 16.290000149 0.0 0.0 0.0 29.1751946751" Properties=species:S:1:pos:R:3:initial_magmoms:R:1 pbc="T T T"
Si      -1.49965741      -1.36319608       1.16073512       0.00000000
Si       1.39139407      -1.35464383      -1.31285459       0.00000000
Si       1.33636645       1.28951641       1.43191855       0.00000000
Si      -1.34249149       1.34591239      -1.38372113       0.00000000
H       -0.85268377      -2.20885886       2.23549094       0.00000000
Si      -0.00669519      -2.72482832      -2.62921019       0.00000000
Si       2.69254154       2.66986586       0.07754767       0.00000000
Si      -2.92975653      -0.13566312       2.44704028       0.00000000
Si       2.74512567      -2.65997783       0.11687583       0.00000000
Si       2.73393444      -0.00710244      -2.68405956       0.00000000
