10
Lattice="16.290000149 0.0 0.0 0.0 16.290000149 0.0 0.0 0.0 29.1751946751" Properties=species:S:1:pos:R:3:initial_magmoms:R:1 pbc="T T T"
Si       1.37981188       1.31774698      -1.36356107       0.00000000
Si      -1.37357281      -1.32672277      -1.36350272       0.00000000
Si       1.35615880      -1.36985869       1.33905391       0.00000000
Si      -1.36902790       1.37935576       1.32219065       0.00000000
Si      -0.05357781       2.63725328      -2.64639438       0.00000000
Si       0.04481379      -2.65759949      -2.66602929       0.00000000
Si       2.72658764      -0.00856854       2.66687537       0.00000000
Si      -2.72925920       0.01697418       2.66602929       0.00000000
Si      -0.01444923       2.73259866       2.68289255       0.00000000
Si       0.00021177      -2.72551250       2.69666324       0.00000000
