10
Lattice="16.290000149 0.0 0.0 0.0 16.290000149 0.0 0.0 0.0 29.1751946751" Properties=species:S:1:pos:R:3:initial_magmoms:R:1 pbc="T T T"
Si      -1.48563172       1.79976809      -0.11850964       0.00000000
Si       1.12497112      -1.11407311      -1.75345838       0.00000000
Si      -1.65644867      -1.52695945       0.73328934       0.00000000
Si       1.86069269       0.84191608       1.25333719       0.00000000
H       -0.75502522       0.55596141       2.49818439       0.00000000
H       -1.40468671       0.98059285       2.45728077       0.00000000
Si       2.46451412      -2.52472196      -0.37676846       0.00000000
H        1.36912564       3.20963502      -0.96832471       0.00000000
H        0.79884532       3.33511689       1.36084778       0.00000000
Si       2.55490733       2.69904125      -0.16863263       0.00000000
