10
Lattice="16.290000149 0.0 0.0 0.0 16.290000149 0.0 0.0 0.0 29.1751946751" Properties=species:S:1:pos:R:3:initial_magmoms:R:1 pbc="T T T"
Si      -1.37863900       1.34741107       1.32125704       0.00000000
Si      -1.37042884      -1.36129015      -1.32782146       0.00000000
Si       1.35163018       1.39129633      -1.32755888       0.00000000
Si       1.35620767      -1.32913369       1.38827246       0.00000000
Si       0.04225626       2.65662209       2.63527863       0.00000000
Si       0.01422117      -2.67584429      -2.68659780       0.00000000
Si       2.70246215      -2.67672395       0.02059769       0.00000000
Si      -2.72658764       0.00856854      -2.66687537       0.00000000
Si      -2.72745101      -0.01091430       2.67416917       0.00000000
Si       2.69514794       0.06046848      -2.71489774       0.00000000
