10
Lattice="16.290000149 0.0 0.0 0.0 16.290000149 0.0 0.0 0.0 29.1751946751" Properties=species:S:1:pos:R:3:initial_magmoms:R:1 pbc="T T T"
H       -0.59683303      -0.09731646      -1.40110955       0.00000000
Si      -1.71481574       0.44033499       1.52670876       0.00000000
Si       0.47897487      -2.02944080       1.05926379       0.00000000
H        1.51827688      -0.84510892      -1.70453157       0.00000000
Si       1.89596054       1.50342040       0.31745529       0.00000000
Si       0.80244541      -0.92856259      -3.03042747       0.00000000
Si      -2.56055996       2.28696941       0.40716902       0.00000000
Si      -0.33718671       1.46771272       3.15981946       0.00000000
Si       2.07373331      -1.21523401       2.61914475       0.00000000
Si       0.92758519       2.95215528       1.83687026       0.00000000
