10
Lattice="16.290000149 0.0 0.0 0.0 16.290000149 0.0 0.0 0.0 29.1751946751" Properties=species:S:1:pos:R:3:initial_magmoms:R:1 pbc="T T T"
Si       1.36730116       1.35889552       1.32849249       0.00000000
Si       1.37096641      -1.35669637      -1.33295629       0.00000000
Si      -1.34324083       1.38254860      -1.34389699       0.00000000
Si      -1.37471311      -1.33709950       1.36157716       0.00000000
Si      -0.07003071       2.69506649       2.60893343       0.00000000
Si      -0.00242721      -2.70441695      -2.67583215       0.00000000
Si      -2.69138495       0.02085120      -2.69432923       0.00000000
Si      -0.01674612      -2.70379793       2.69622562       0.00000000
Si       2.72127710       0.00785178      -2.68907769       0.00000000
Si       2.72174951       2.70946685      -0.03317220       0.00000000
