10
Lattice="16.290000149 0.0 0.0 0.0 16.290000149 0.0 0.0 0.0 29.1751946751" Properties=species:S:1:pos:R:3:initial_magmoms:R:1 pbc="T T T"
Si      -1.33719398      -1.34662915       1.37292631       0.00000000
Si       1.35197227      -1.36086661      -1.36143128       0.00000000
Si       1.34933329       1.34422312       1.38290423       0.00000000
Si      -1.40580909       1.33912761      -1.33228526       0.00000000
Si       2.65509083       2.69410538      -0.03786940       0.00000000
Si      -2.71825112       0.04410941       2.67218526       0.00000000
Si      -0.05916528       2.69303024      -2.70947115       0.00000000
Si      -2.71581357      -2.70624143       0.01476265       0.00000000
Si      -0.05623308       2.71588511       2.70845002       0.00000000
Si       2.71536383      -0.01024641      -2.71139672       0.00000000
