10
Lattice="16.290000149 0.0 0.0 0.0 16.290000149 0.0 0.0 0.0 29.1751946751" Properties=species:S:1:pos:R:3:initial_magmoms:R:1 pbc="T T T"
Si      -1.79962148      -1.32675535       0.64360479       0.00000000
Si       1.82389358      -1.46030077      -0.16303099       0.00000000
Si      -1.01620279       0.79245964      -1.96798358       0.00000000
Si       0.65023165       1.77712499       1.58132473       0.00000000
H        0.03805344      -1.14039775       3.13151952       0.00000000
Si      -2.59612103       2.07671438      -0.69197727       0.00000000
Si       3.44404812       0.22797855      -0.10584761       0.00000000
Si      -3.46450836       0.29540286       0.55995951       0.00000000
Si      -1.32745582      -1.71820406       2.86091959       0.00000000
Si       2.88174990       1.26765523       1.89784641       0.00000000
