10
Lattice="16.290000149 0.0 0.0 0.0 16.290000149 0.0 0.0 0.0 29.1751946751" Properties=species:S:1:pos:R:3:initial_magmoms:R:1 pbc="T T T"
Si       1.21595077      -1.41446071       1.44952987       0.00000000
Si      -1.48685347      -1.24773256      -1.37666074       0.00000000
Si      -1.48157551       1.29997785       1.33762433       0.00000000
Si       1.61696170       1.48549977      -0.94046240       0.00000000
Si       2.55637343      -2.77193901       0.10678121       0.00000000
Si       0.88723486       3.67660416      -0.54087893       0.00000000
Si      -2.79811704      -2.61607628       0.10818162       0.00000000
H        3.03598362      -0.72436744      -2.23849599       0.00000000
H        1.08954037      -1.09628443      -3.51695302       0.00000000
Si      -0.18314847       2.58354190       2.84298852       0.00000000
