10
Lattice="16.290000149 0.0 0.0 0.0 16.290000149 0.0 0.0 0.0 29.1751946751" Properties=species:S:1:pos:R:3:initial_magmoms:R:1 pbc="T T T"
Si       1.24994800      -1.37003788       1.41335438       0.00000000
Si      -1.28664937       1.44873487       1.32910225       0.00000000
Si       1.90755902       0.79050484      -1.12221511       0.00000000
Si      -1.83905957      -0.88167997      -1.18637428       0.00000000
H        0.69537124      -1.82612531      -1.92365187       0.00000000
Si       1.25320600       1.21433806      -3.25371982       0.00000000
Si       2.66980070       0.05900238       2.64920979       0.00000000
Si      -2.71399547       0.05864400       2.61055266       0.00000000
Si       2.74784610      -2.60595856       0.13363698       0.00000000
Si      -3.47218095       0.85359601      -1.26990636       0.00000000
