10
Lattice="16.290000149 0.0 0.0 0.0 16.290000149 0.0 0.0 0.0 29.1751946751" Properties=species:S:1:pos:R:3:initial_magmoms:R:1 pbc="T T T"
Si       1.39053070       1.43689204      -1.17803601       0.00000000
Si       1.69981265      -1.59894496       0.01543368       0.00000000
Si      -0.95700493       1.26772039       1.75617167       0.00000000
Si      -1.59475843      -0.81420679      -1.55988096       0.00000000
Si      -2.07373331       1.21523401      -2.61914475       0.00000000
Si      -0.17777277       2.71865441      -2.30168946       0.00000000
Si       0.62758855      -3.35886771      -1.04814804       0.00000000
Si      -2.41092002       2.68294673       0.54067471       0.00000000
Si      -0.30081114      -2.31673124      -2.88253841       0.00000000
Si       2.35416566      -2.02277819       2.14693839       0.00000000
