10
Lattice="16.290000149 0.0 0.0 0.0 16.290000149 0.0 0.0 0.0 29.1751946751" Properties=species:S:1:pos:R:3:initial_magmoms:R:1 pbc="T T T"
Si       1.41230555       1.39085650      -1.25551366       0.00000000
Si       1.36623743      -1.34747623       1.37234281       0.00000000
Si      -1.28042724       1.34561917       1.45665912       0.00000000
Si      -1.39108945      -1.28669824      -1.43522994       0.00000000
Si      -2.69287223      -2.64059273      -0.00014588       0.00000000
Si      -2.59744541       2.78021595       0.18009848       0.00000000
Si       0.13349492       2.76331182      -2.64358481       0.00000000
Si       2.74145553       0.07628607      -2.67507068       0.00000000
Si       2.71809567      -2.71722089       0.01435420       0.00000000
Si       0.02013118      -2.69527826       2.74112624       0.00000000
