10
Lattice="16.290000149 0.0 0.0 0.0 16.290000149 0.0 0.0 0.0 29.1751946751" Properties=species:S:1:pos:R:3:initial_magmoms:R:1 pbc="T T T"
Si      -1.15013917      -0.12562848       2.05836833       0.00000000
Si      -1.52019910       1.00367578      -1.50456479       0.00000000
Si       1.00176985      -1.76096531      -1.26990870       0.00000000
Si       1.52607979       1.84080260       0.42902124       0.00000000
H       -2.05151375      -2.79709077      -0.91315442       0.00000000
H        0.71094448      -2.96528502       1.92150750       0.00000000
Si       2.30871656      -0.46923345      -2.76458310       0.00000000
Si      -2.55562409       2.62187390      -0.18444558       0.00000000
Si      -0.22607262       2.44285966      -2.78001677       0.00000000
Si       0.41330988       0.65629153       3.65022531       0.00000000
