10
Lattice="16.290000149 0.0 0.0 0.0 16.290000149 0.0 0.0 0.0 29.1751946751" Properties=species:S:1:pos:R:3:initial_magmoms:R:1 pbc="T T T"
Si      -0.51776299      -0.90704350      -2.09483733       0.00000000
Si       2.05741073       1.00712926       0.72477019       0.00000000
Si      -1.41251080       1.95079268       0.00373442       0.00000000
Si      -0.68070861      -1.76458169       1.50649035       0.00000000
H        1.45194400       1.56949264      -2.37979145       0.00000000
Si      -1.94263139      -0.33586722       2.83346486       0.00000000
H        2.85343788      -0.45406746      -1.92028214       0.00000000
Si       0.25559010       1.20883204      -3.27173551       0.00000000
Si       1.05137290       2.24867162       2.56759218       0.00000000
Si      -3.08257302       1.16590789       1.45041563       0.00000000
