10
Lattice="16.290000149 0.0 0.0 0.0 16.290000149 0.0 0.0 0.0 29.1751946751" Properties=species:S:1:pos:R:3:initial_magmoms:R:1 pbc="T T T"
Si       1.38730528       1.35935164      -1.30404368       0.00000000
Si       1.38279295      -1.34550514       1.33596134       0.00000000
Si      -1.31733973       1.37073835       1.38914772       0.00000000
Si      -1.33112107      -1.34548885      -1.41461766       0.00000000
Si       0.01659951       2.71997716      -2.61730671       0.00000000
Si       0.01436778      -2.68946273       2.67854545       0.00000000
Si      -2.67722732      -2.69329088      -0.04583423       0.00000000
Si      -2.66348996       2.73143881       0.03360982       0.00000000
Si       2.71116101       0.00728163      -2.68831914       0.00000000
Si      -2.69269304       0.02246391       2.73995923       0.00000000
