10
Lattice="16.290000149 0.0 0.0 0.0 16.290000149 0.0 0.0 0.0 29.1751946751" Properties=species:S:1:pos:R:3:initial_magmoms:R:1 pbc="T T T"
Si      -1.35832537       1.35309628      -1.30305172       0.00000000
Si       1.38751705       1.34618932       1.29715833       0.00000000
Si       1.35853714      -1.35356869      -1.33126413       0.00000000
Si      -1.34757397      -1.30236922       1.39250287       0.00000000
H       -0.43222257      -2.20309220       2.18291724       0.00000000
Si       2.61131960      -0.18652050       2.53803771       0.00000000
Si      -2.66854637      -0.07859925      -2.62442546       0.00000000
Si      -2.55578699       2.75156022       0.17621818       0.00000000
Si       0.01495422       2.60672582      -2.73307389       0.00000000
Si       2.60392394      -2.74207943       0.03725672       0.00000000
