10
Lattice="16.290000149 0.0 0.0 0.0 16.290000149 0.0 0.0 0.0 29.1751946751" Properties=species:S:1:pos:R:3:initial_magmoms:R:1 pbc="T T T"
Si       1.43009911      -1.22753296      -1.28630516       0.00000000
Si      -1.22380255       1.53270982      -1.24087938       0.00000000
Si       1.48470319       1.01229319       1.47162599       0.00000000
Si      -1.11915559      -1.43576803       1.55392922       0.00000000
H        2.07707276      -2.07319574      -0.21154934       0.00000000
Si      -1.99852238       0.34073793       2.84233499       0.00000000
Si      -0.12496059       1.80006131       2.99486291       0.00000000
Si       2.46286883      -0.84781306       2.36730447       0.00000000
Si      -0.00739566      -2.55555893      -2.50078099       0.00000000
Si       0.69686992      -2.33165288       2.70095200       0.00000000
