10
Lattice="16.290000149 0.0 0.0 0.0 16.290000149 0.0 0.0 0.0 29.1751946751" Properties=species:S:1:pos:R:3:initial_magmoms:R:1 pbc="T T T"
Si      -1.29412648      -1.43918388       1.27545199       0.00000000
Si       1.29966508      -1.41598692      -1.33873298       0.00000000
Si      -1.43309647       1.62700139      -0.92917160       0.00000000
Si       1.18286578       1.14752968       1.69709190       0.00000000
Si      -0.81283843       2.02889199       2.66850918       0.00000000
Si      -2.32955147       0.17901423       2.59557119       0.00000000
Si       2.61619124       2.57393910       0.33481453       0.00000000
Si      -0.09055611       2.65136547      -2.56248652       0.00000000
Si       1.75215242      -0.60205707       3.20903801       0.00000000
Si       0.22607262      -2.44285966       2.78001677       0.00000000
