10
Lattice="16.290000149 0.0 0.0 0.0 16.290000149 0.0 0.0 0.0 29.1751946751" Properties=species:S:1:pos:R:3:initial_magmoms:R:1 pbc="T T T"
Si      -1.42144912       1.36932112      -1.25558368       0.00000000
Si      -1.29867139      -1.24328539       1.49727099       0.00000000
Si       1.18299610      -1.45173223      -1.41242952       0.00000000
Si       1.85577311       0.93009385       1.10746121       0.00000000
Si       3.45751995      -0.84675421       1.01625956       0.00000000
Si      -0.04274496       2.69034239      -2.61678156       0.00000000
Si       2.57903282      -2.73473265      -0.05341978       0.00000000
Si       2.56805336      -0.11813508      -2.75364240       0.00000000
Si       0.14757111      -2.59144580       2.78351780       0.00000000
Si      -2.77607667      -0.01293426      -2.60592839       0.00000000
