10
Lattice="16.290000149 0.0 0.0 0.0 16.290000149 0.0 0.0 0.0 29.1751946751" Properties=species:S:1:pos:R:3:initial_magmoms:R:1 pbc="T T T"
Si       1.44109486      -0.28841445      -0.44118729       0.00000000
Si      -1.98733115       0.08356770       1.05725070       0.00000000
Si      -1.22492656       1.95662450      -0.22216911       0.00000000
Si       0.65389690       2.66475080       1.05173659       0.00000000
Si       1.08220987      -0.05305653      -2.80096456       0.00000000
Si      -0.59507371       1.62468316      -2.55128325       0.00000000
Si       1.88265161      -2.42331671       0.44786841       0.00000000
Si      -0.96415624      -1.25253811       2.67597803       0.00000000
Si       2.66584223       1.29951847       0.97118388       0.00000000
H        1.62640990       2.40860684      -1.42643362       0.00000000
