10
Lattice="16.290000149 0.0 0.0 0.0 16.290000149 0.0 0.0 0.0 29.1751946751" Properties=species:S:1:pos:R:3:initial_magmoms:R:1 pbc="T T T"
Si      -1.32960610      -1.32136336       1.35530449       0.00000000
Si       1.26037360       1.32125911       1.46272756       0.00000000
Si       1.36679617      -1.36891387      -1.34704791       0.00000000
Si      -1.42060204       1.36101811      -1.30243904       0.00000000
Si       2.42084063       2.76095955      -0.04017424       0.00000000
Si       2.71101440       0.00814500      -2.66124456       0.00000000
Si      -0.04417848      -2.69566922      -2.70098117       0.00000000
Si      -0.11484450       2.71090037      -2.72321267       0.00000000
Si      -2.76993534       0.01679499      -2.68534327       0.00000000
Si      -2.76583026      -2.68882742       0.06800738       0.00000000
