10
Lattice="16.290000149 0.0 0.0 0.0 16.290000149 0.0 0.0 0.0 29.1751946751" Properties=species:S:1:pos:R:3:initial_magmoms:R:1 pbc="T T T"
Si       1.38761479       1.27469251       1.37802351       0.00000000
Si      -1.63435780       1.18245853      -1.21395330       0.00000000
Si       1.25227747      -1.34261693      -1.48580776       0.00000000
Si      -1.33536950      -1.40676532       1.35332671       0.00000000
Si      -2.96956929      -0.79592941      -1.69694865       0.00000000
Si      -2.68222004      -2.62115469      -0.12793585       0.00000000
Si      -0.03091842       2.65688273       2.66229807       0.00000000
Si       2.60806160      -2.72853919      -0.08566100       0.00000000
Si       2.59097339      -0.12170259       2.81989372       0.00000000
Si       3.26168157       2.07664922       0.18212586       0.00000000
