10
Lattice="16.290000149 0.0 0.0 0.0 16.290000149 0.0 0.0 0.0 29.1751946751" Properties=species:S:1:pos:R:3:initial_magmoms:R:1 pbc="T T T"
Si       0.15685641      -0.79601086      -1.27594796       0.00000000
H       -1.40149387       2.02356011      -0.45950932       0.00000000
Si       0.92295883      -0.16863408       2.53949647       0.00000000
H       -1.29233458      -2.67647960       0.42983814       0.00000000
Si      -2.05442966      -0.72668062      -2.08879806       0.00000000
Si       1.01439460      -2.87515245      -0.48865534       0.00000000
Si      -0.79602715       1.46119672       2.64505232       0.00000000
Si       2.79270876       0.72915670       1.26372356       0.00000000
Si       0.87368158      -2.46252674       1.87144286       0.00000000
Si       1.24261750       0.37071153      -2.97849562       0.00000000
