10
Lattice="16.290000149 0.0 0.0 0.0 16.290000149 0.0 0.0 0.0 29.1751946751" Properties=species:S:1:pos:R:3:initial_magmoms:R:1 pbc="T T T"
Si       1.35157968       1.35293338       1.36166469       0.00000000
Si       1.38783797      -1.36172998      -1.32312425       0.00000000
Si      -1.33840270      -1.35720136       1.38057021       0.00000000
Si      -1.34571691       1.37999107      -1.35492522       0.00000000
Si      -2.68923467       2.71081892       0.03241364       0.00000000
Si       0.05292670      -2.73864224      -2.66859671       0.00000000
Si      -2.70198974       0.03033198      -2.70964621       0.00000000
Si       2.71041167       2.70387938      -0.00148794       0.00000000
Si       2.69101028      -0.00663003       2.72341690       0.00000000
Si      -2.69693984      -2.72262917       0.04913103       0.00000000
