10
Lattice="16.290000149 0.0 0.0 0.0 16.290000149 0.0 0.0 0.0 29.1751946751" Properties=species:S:1:pos:R:3:initial_magmoms:R:1 pbc="T T T"
Si      -1.34814412      -1.36169740      -1.35043224       0.00000000
Si       1.34324083      -1.38254860       1.34389699       0.00000000
Si      -1.38833155       1.35140212       1.33283959       0.00000000
Si       1.34843734       1.34759026      -1.37806115       0.00000000
Si       2.71054199      -0.02365308       2.67238948       0.00000000
Si      -0.03715749       2.73789291       2.65468014       0.00000000
Si      -2.69150387      -0.00369783      -2.71370156       0.00000000
Si       2.71394660       2.70309746      -0.03145086       0.00000000
Si       0.01071882      -2.71720460      -2.70454055       0.00000000
Si      -0.03147228      -2.71964810       2.70547415       0.00000000
