10
Lattice="16.290000149 0.0 0.0 0.0 16.290000149 0.0 0.0 0.0 29.1751946751" Properties=species:S:1:pos:R:3:initial_magmoms:R:1 pbc="T T T"
Si      -1.36712197      -1.35003376       1.35036805       0.00000000
Si       1.30497562       1.29542968       1.47503366       0.00000000
Si      -1.37202526       1.41177286      -1.30328512       0.00000000
Si       1.36285399      -1.34804638      -1.39076986       0.00000000
Si       2.66069459       2.63595008       0.15972836       0.00000000
Si       2.71226873      -2.71005329      -0.01495229       0.00000000
Si      -0.01501938      -2.66854637       2.75792532       0.00000000
Si      -2.72981306       0.02401146       2.69969163       0.00000000
Si      -2.71065602      -2.71914311      -0.01355480       0.00000000
Si      -2.78526423       0.11715768      -2.64840222       0.00000000
