10
Lattice="16.290000149 0.0 0.0 0.0 16.290000149 0.0 0.0 0.0 29.1751946751" Properties=species:S:1:pos:R:3:initial_magmoms:R:1 pbc="T T T"
Si      -2.04936347       0.61901512      -0.90189279       0.00000000
Si       1.03542499      -1.61819812      -1.32011921       0.00000000
Si      -0.53243865      -1.25859636       1.93075603       0.00000000
Si       1.51671304       1.84987776       0.07293799       0.00000000
Si       2.32955147      -0.17901423      -2.59557119       0.00000000
Si      -3.29577654      -1.16602029      -0.06736552       0.00000000
Si       2.55562409      -2.62187390       0.18444558       0.00000000
Si       0.78784957       3.17811550      -1.71774794       0.00000000
Si      -2.14364999       0.27396034       3.00656216       0.00000000
Si       0.88728373       2.92581598       2.11814831       0.00000000
