10
Lattice="16.290000149 0.0 0.0 0.0 16.290000149 0.0 0.0 0.0 29.1751946751" Properties=species:S:1:pos:R:3:initial_magmoms:R:1 pbc="T T T"
Si       1.36712197       1.35003376      -1.35036805       0.00000000
Si      -1.34353405      -1.36910935      -1.36392285       0.00000000
Si       1.35210259      -1.31851261       1.40755727       0.00000000
Si      -1.36269109       1.37404522       1.34932358       0.00000000
Si       2.67209759       2.64546344       0.12466561       0.00000000
Si      -2.69931818      -2.68361462       0.03536034       0.00000000
Si       0.08281836      -2.74610307      -2.65709293       0.00000000
Si      -0.00490329       2.76180663      -2.65365317       0.00000000
Si       2.77048920      -2.64938933       0.10503070       0.00000000
Si      -2.71761185      -0.01736514      -2.72468894       0.00000000
