10
Lattice="16.290000149 0.0 0.0 0.0 16.290000149 0.0 0.0 0.0 29.1751946751" Properties=species:S:1:pos:R:3:initial_magmoms:R:1 pbc="T T T"
Si      -1.56487932       1.07258248      -1.36580756       0.00000000
Si       1.38668626      -1.47678625      -1.21333800       0.00000000
Si      -0.85732642      -1.48691863       1.62695473       0.00000000
Si       0.43034922       1.81429877       1.48457978       0.00000000
H        0.33902748      -1.12625803       2.51889878       0.00000000
Si      -1.88351986       1.99392860       2.07552335       0.00000000
Si      -0.24809670       2.55427202      -2.63854626       0.00000000
Si      -3.05154057       2.15212079       0.05811699       0.00000000
Si       2.69956253      -0.12382029      -2.60371107       0.00000000
Si      -0.11820024      -2.82105336      -2.51067138       0.00000000
