10
Lattice="16.290000149 0.0 0.0 0.0 16.290000149 0.0 0.0 0.0 29.1751946751" Properties=species:S:1:pos:R:3:initial_magmoms:R:1 pbc="T T T"
Si      -1.56830347       1.28176237      -1.12365345       0.00000000
Si      -1.39053070      -1.43689204       1.17803601       0.00000000
Si       1.56631609       1.12029589       1.46853342       0.00000000
Si       1.07272909      -1.11022867      -1.86619133       0.00000000
Si       2.09590400      -2.44633448      -0.24746400       0.00000000
Si       0.30928194      -3.03583701       1.19346969       0.00000000
Si       0.05219316       2.30816270      -2.51621466       0.00000000
Si       1.83513368       0.76282813      -3.14561114       0.00000000
Si      -2.53667882       2.73049725       0.39576152       0.00000000
Si      -2.98528914      -2.25109883      -0.38184495       0.00000000
