10
Lattice="16.290000149 0.0 0.0 0.0 16.290000149 0.0 0.0 0.0 29.1751946751" Properties=species:S:1:pos:R:3:initial_magmoms:R:1 pbc="T T T"
Si       1.36365220       1.36148563      -1.32974702       0.00000000
Si      -1.35001747       1.36542781       1.35539202       0.00000000
Si       1.38422647      -1.33784884       1.34996543       0.00000000
Si      -1.33511212      -1.35136954      -1.39396163       0.00000000
Si       2.69967656      -0.07995132      -2.61861960       0.00000000
Si      -2.69026094      -2.69542487      -0.01826367       0.00000000
Si      -0.02164941       2.71821458      -2.66888846       0.00000000
Si       0.02399517      -2.70023042       2.69380407       0.00000000
Si      -2.71844264       0.02147022       2.69797613       0.00000000
Si       0.01664838       2.72719037       2.70809992       0.00000000
