10
Lattice="16.290000149 0.0 0.0 0.0 16.290000149 0.0 0.0 0.0 29.1751946751" Properties=species:S:1:pos:R:3:initial_magmoms:R:1 pbc="T T T"
Si      -0.71583148      -0.08345367      -1.32589590       0.00000000
H       -2.11510991       0.74779246       0.30342202       0.00000000
H        1.14559426       1.63633051      -1.12514138       0.00000000
H        1.79525576       1.21169908      -1.08423776       0.00000000
Si      -1.51827688       0.84510892       1.70453157       0.00000000
Si       0.25464528      -2.68685633       1.44113792       0.00000000
Si       2.24676569      -2.08503857       0.27121261       0.00000000
Si       0.89383231      -0.87122179      -2.84913281       0.00000000
Si       0.37768365       2.34852932       2.02198687       0.00000000
Si      -1.03930201      -1.18433188       2.76379537       0.00000000
