10
Lattice="16.290000149 0.0 0.0 0.0 16.290000149 0.0 0.0 0.0 29.1751946751" Properties=species:S:1:pos:R:3:initial_magmoms:R:1 pbc="T T T"
Si      -0.29054844       0.87594589       2.13136467       0.00000000
Si       1.66488689      -1.62215821       0.08364528       0.00000000
Si      -1.78362470      -0.95283469      -1.17488509       0.00000000
Si       0.86838733       1.78131152      -1.25193678       0.00000000
H       -0.40750901       2.61426972      -0.46560693       0.00000000
Si      -0.44230120      -2.25355862      -2.59463759       0.00000000
Si       3.46450836      -0.29540286      -0.55995951       0.00000000
Si      -2.56626146       1.35720136       2.01871925       0.00000000
Si       2.44830557       0.49705677      -2.52794309       0.00000000
Si       2.13705254      -2.01360692       2.30096008       0.00000000
