10
Lattice="16.290000149 0.0 0.0 0.0 16.290000149 0.0 0.0 0.0 29.1751946751" Properties=species:S:1:pos:R:3:initial_magmoms:R:1 pbc="T T T"
Si      -0.84574423       1.84663442      -1.11953975       0.00000000
Si       1.71481574      -0.44033499      -1.52670876       0.00000000
Si       1.37762902       1.02737773       1.63311070       0.00000000
Si      -1.39494529      -1.73773577       0.91388380       0.00000000
H        1.11798271      -0.53765145      -2.92781831       0.00000000
H       -2.00041202      -1.17537238      -2.19067784       0.00000000
Si       2.19379061      -2.46977579      -0.46744497       0.00000000
Si       0.32404068      -3.36756657       0.80832794       0.00000000
Si       2.64240092       2.51182028       0.31016149       0.00000000
Si      -2.56771127       2.60644889       0.25580811       0.00000000
