10
Lattice="16.290000149 0.0 0.0 0.0 16.290000149 0.0 0.0 0.0 29.1751946751" Properties=species:S:1:pos:R:3:initial_magmoms:R:1 pbc="T T T"
Si       1.27881062      -1.37245532       1.38807115       0.00000000
Si      -1.34685053      -1.21438937      -1.48126256       0.00000000
Si      -1.43197867       1.30772212       1.35175971       0.00000000
Si       1.33536950       1.40676532      -1.35332671       0.00000000
Si      -1.63419978       0.61083591      -3.05027536       0.00000000
Si      -0.29898829       2.58922385      -2.56728001       0.00000000
Si       2.60796061      -2.68702575      -0.03148587       0.00000000
Si      -2.82706762      -2.52184515      -0.11146675       0.00000000
Si      -0.06972446       2.70273257       2.67054269       0.00000000
Si       2.58046309      -0.04532204       2.81323857       0.00000000
