10
Lattice="16.290000149 0.0 0.0 0.0 16.290000149 0.0 0.0 0.0 29.1751946751" Properties=species:S:1:pos:R:3:initial_magmoms:R:1 pbc="T T T"
Si       0.08206902      -0.69328612      -2.22982220       0.00000000
Si      -0.98831431      -1.78634838       1.15404525       0.00000000
Si       1.83905957       0.88167997       1.18637428       0.00000000
Si      -1.63312138       1.73527598      -0.08353208       0.00000000
H        2.53443080      -0.94444534      -0.73727759       0.00000000
Si      -2.30382956      -0.46307583       2.55423578       0.00000000
Si       0.55241020       2.33041484       2.51547653       0.00000000
Si      -2.12133269      -0.31092723      -3.03494087       0.00000000
Si      -2.07205544       1.98296543      -2.36688727       0.00000000
Si       2.02004147       0.33609528      -3.13092726       0.00000000
