10
Lattice="16.290000149 0.0 0.0 0.0 16.290000149 0.0 0.0 0.0 29.1751946751" Properties=species:S:1:pos:R:3:initial_magmoms:R:1 pbc="T T T"
Si      -1.04182696       1.48784716       1.46313601       0.00000000
Si       0.91113229       1.83568754      -1.17298870       0.00000000
Si      -1.34118829      -1.45169965      -1.29351143       0.00000000
Si       1.50508198      -1.30684897       1.29476596       0.00000000
H       -1.94554730       2.30402504       0.55607921       0.00000000
H        2.77221594      -1.00396900      -1.30984954       0.00000000
Si       2.32057568      -2.28890792      -0.64900221       0.00000000
Si       0.44175222      -2.99703423      -1.92290791       0.00000000
Si       0.85662595       2.78907609       2.09509990       0.00000000
Si       2.47458134       2.61760754       0.41886827       0.00000000
