10
Lattice="16.290000149 0.0 0.0 0.0 16.290000149 0.0 0.0 0.0 29.1751946751" Properties=species:S:1:pos:R:3:initial_magmoms:R:1 pbc="T T T"
Si       1.25571466      -1.10577498       1.60168901       0.00000000
Si      -1.81066610      -1.32866780      -0.60348890       0.00000000
Si       1.22026762       1.32318784      -1.49190275       0.00000000
Si      -1.32898708       1.54855999       1.15834275       0.00000000
Si      -0.63675982      -1.12074875       2.94421477       0.00000000
H        3.09822771      -0.52116109      -0.77535997       0.00000000
Si      -0.19945476      -2.86122450      -1.67929503       0.00000000
Si       2.75714769       2.04538871       0.11544625       0.00000000
Si      -3.02805039       0.54423262      -1.55661334       0.00000000
Si      -2.53723268      -1.67192579       1.65986435       0.00000000
