10
Lattice="16.290000149 0.0 0.0 0.0 16.290000149 0.0 0.0 0.0 29.1751946751" Properties=species:S:1:pos:R:3:initial_magmoms:R:1 pbc="T T T"
Si       0.64485595       0.83049679      -1.07478500       0.00000000
H       -1.44233290      -0.90652222      -0.54703490       0.00000000
H       -0.63506566      -1.65579707       1.10445617       0.00000000
Si       0.55071604      -2.16639083       1.90414826       0.00000000
Si      -2.24673311       0.96023035       1.63241049       0.00000000
Si       1.91976023       2.29364831       0.22803332       0.00000000
Si       1.88330321      -0.53367669      -2.49272863       0.00000000
Si      -2.53371404       1.84544525      -0.60827363       0.00000000
Si      -0.93255364       1.91809865      -2.39793843       0.00000000
Si      -2.28538928      -1.84062341      -1.35766768       0.00000000
