10
Lattice="16.290000149 0.0 0.0 0.0 16.290000149 0.0 0.0 0.0 29.1751946751" Properties=species:S:1:pos:R:3:initial_magmoms:R:1 pbc="T T T"
Si       1.29178561       1.40556637       1.31959406       0.00000000
Si      -1.32111901       1.37507149      -1.33558206       0.00000000
Si       1.40338188      -1.31804020      -1.31495520       0.00000000
Si      -1.31869180      -1.32703228       1.44145884       0.00000000
Si      -2.55956627       2.73924498       0.08236157       0.00000000
Si       0.01213605      -2.69333975      -2.62690535       0.00000000
Si       2.77312818      -2.55785582       0.12977127       0.00000000
Si      -2.71006958       0.01669725      -2.66591259       0.00000000
Si       2.73448830       0.07859925      -2.65914394       0.00000000
Si       2.71047683       0.17818002       2.69546706       0.00000000
