10
Lattice="16.290000149 0.0 0.0 0.0 16.290000149 0.0 0.0 0.0 29.1751946751" Properties=species:S:1:pos:R:3:initial_magmoms:R:1 pbc="T T T"
Si       0.97816564      -1.86010625       0.89567848       0.00000000
Si      -1.48470319      -1.01229319      -1.47162599       0.00000000
Si      -1.60966378       0.78776812       1.52323691       0.00000000
Si       1.65644867       1.52695945      -0.73328934       0.00000000
H        0.90142345       2.08292087       1.76489505       0.00000000
H        0.25176195       2.50755230       1.72399143       0.00000000
H       -0.89383231       0.87122179       2.84913281       0.00000000
Si      -1.95154202       2.73645938       0.14946452       0.00000000
Si       0.17081694       3.32672754      -0.85179898       0.00000000
Si      -0.05460408      -2.23982615      -2.75793115       0.00000000
