10
Lattice="16.290000149 0.0 0.0 0.0 16.290000149 0.0 0.0 0.0 29.1751946751" Properties=species:S:1:pos:R:3:initial_magmoms:R:1 pbc="T T T"
Si      -1.37849239      -1.36415719      -1.30480223       0.00000000
Si      -1.38465001       1.31455414       1.35877634       0.00000000
Si       1.32970384      -1.36630747       1.37575630       0.00000000
Si       1.32465394       1.38665368      -1.38302093       0.00000000
Si      -2.69599502       0.02681334      -2.64630686       0.00000000
Si      -0.01422117       2.67584429       2.68659780       0.00000000
Si      -0.05170446      -2.72332964      -2.67125165       0.00000000
Si       2.68824098      -0.00087966       2.70719549       0.00000000
Si       2.74926333       0.02599884      -2.65327973       0.00000000
Si       2.69459408      -2.71410950       0.02561582       0.00000000
