10
Lattice="16.290000149 0.0 0.0 0.0 16.290000149 0.0 0.0 0.0 29.1751946751" Properties=species:S:1:pos:R:3:initial_magmoms:R:1 pbc="T T T"
Si       0.68965345      -2.04599795      -0.77495152       0.00000000
Si      -0.62201737      -0.51815232       2.18037900       0.00000000
Si      -1.81602551       0.89588485      -1.14702278       0.00000000
Si       1.76599892       1.48383982      -0.33364753       0.00000000
H        1.38020284       0.25845714      -2.91250133       0.00000000
Si       0.14864625       1.52831152       3.06094472       0.00000000
Si      -2.83372698      -1.25289649      -1.54952376       0.00000000
Si       2.14076666       2.13012929       1.89101942       0.00000000
Si      -0.69686992       2.33165288      -2.70095200       0.00000000
Si       0.78783328       3.34394607      -1.22932600       0.00000000
