10
Lattice="16.290000149 0.0 0.0 0.0 16.290000149 0.0 0.0 0.0 29.1751946751" Properties=species:S:1:pos:R:3:initial_magmoms:R:1 pbc="T T T"
Si       1.38465001      -1.31455414      -1.35877634       0.00000000
Si       1.37042884       1.36129015       1.32782146       0.00000000
Si      -1.35615880       1.36985869      -1.33905391       0.00000000
Si      -1.35594703      -1.35565381       1.35760933       0.00000000
Si       0.00615762      -2.67871133      -2.66357857       0.00000000
Si      -0.00821016       2.70870122       2.64907850       0.00000000
Si       0.02365308       2.68760567      -2.70261498       0.00000000
Si       2.71435385      -2.68086161       0.01697996       0.00000000
Si      -2.73437427       0.01065366       2.66915104       0.00000000
Si      -2.73484668      -2.69096141       0.01324554       0.00000000
