10
Lattice="16.290000149 0.0 0.0 0.0 16.290000149 0.0 0.0 0.0 29.1751946751" Properties=species:S:1:pos:R:3:initial_magmoms:R:1 pbc="T T T"
Si       1.32497974       1.33650785       1.33740551       0.00000000
Si      -1.41700195       1.34346368      -1.25393528       0.00000000
Si       1.22885245      -1.20224143      -1.59774453       0.00000000
Si      -1.45987723      -1.43634502       1.21568660       0.00000000
Si      -2.45715104      -0.50996530      -2.20612611       0.00000000
Si      -0.71395813      -2.05342652      -2.66216503       0.00000000
Si       2.62394141       2.62732583      -0.13451807       0.00000000
Si       2.64199791      -0.09808893       2.61396615       0.00000000
Si       2.53133570      -2.73040635      -0.27792290       0.00000000
Si      -0.11728800       2.66866985       2.62032635       0.00000000
