10
Lattice="16.290000149 0.0 0.0 0.0 16.290000149 0.0 0.0 0.0 29.1751946751" Properties=species:S:1:pos:R:3:initial_magmoms:R:1 pbc="T T T"
Si       0.07258824       1.07220781       1.06276482       0.00000000
H        1.16579223       1.81340282      -1.93495726       0.00000000
Si      -2.45438174      -1.40774923      -1.02722943       0.00000000
H       -1.20585097      -2.17615994       1.73452367       0.00000000
Si      -1.54693099       0.39038985       2.62532989       0.00000000
Si      -0.45867753      -2.28911155      -1.99864671       0.00000000
Si       2.27067778       1.25608933       1.71821474       0.00000000
Si      -0.36896850       3.20711007       0.17370911       0.00000000
Si      -3.08381106      -0.33181101       1.01798089       0.00000000
Si       2.29436670       0.83600281      -2.21874438       0.00000000
