10
Lattice="16.290000149 0.0 0.0 0.0 16.290000149 0.0 0.0 0.0 29.1751946751" Properties=species:S:1:pos:R:3:initial_magmoms:R:1 pbc="T T T"
Si      -1.32497974      -1.33650785      -1.33740551       0.00000000
Si       1.31701817      -1.43459678       1.27656064       0.00000000
Si      -1.44226774       1.33216200       1.28292084       0.00000000
Si       1.29896166       1.29081798      -1.47192358       0.00000000
Si       2.63131395      -0.05076453       2.64047182       0.00000000
Si      -0.07372854       2.68113692       2.62109949       0.00000000
Si      -2.74198169       0.00695583      -2.59134079       0.00000000
Si       2.66121587       2.68582844      -0.15314060       0.00000000
Si      -0.15151329       2.67514220      -2.69873760       0.00000000
Si      -0.08081469      -2.76954600       2.61141333       0.00000000
