10
Lattice="16.290000149 0.0 0.0 0.0 16.290000149 0.0 0.0 0.0 29.1751946751" Properties=species:S:1:pos:R:3:initial_magmoms:R:1 pbc="T T T"
Si       1.27589634      -0.83295821      -0.78632985       0.00000000
Si      -0.06680529       0.64890238      -2.01370111       0.00000000
Si      -1.29471362       1.91892781      -0.38989730       0.00000000
Si       2.16868609       0.84667439       0.55972611       0.00000000
H        1.52612703       2.07228187      -0.01639646       0.00000000
Si       0.40750901      -2.61426972       0.46560693       0.00000000
Si      -2.72803908       0.49251838       0.97238006       0.00000000
Si       1.38375243       0.26936330       2.71215527       0.00000000
Si       0.11696057      -1.73832383       2.59697160       0.00000000
Si      -2.15875245      -1.25706836       2.48432618       0.00000000
