10
Lattice="16.290000149 0.0 0.0 0.0 16.290000149 0.0 0.0 0.0 29.1751946751" Properties=species:S:1:pos:R:3:initial_magmoms:R:1 pbc="T T T"
Si       1.33943060      -1.35956341       1.36175221       0.00000000
Si      -1.35157968      -1.35293338      -1.36166469       0.00000000
Si       1.35883199       1.35094600      -1.36315262       0.00000000
Si      -1.32683517       1.34902378       1.39655822       0.00000000
Si       2.69060466       0.02692737       2.68359276       0.00000000
Si      -2.66988053       2.70575273       0.02657860       0.00000000
Si       0.03625828      -2.71466336      -2.68478894       0.00000000
Si      -2.68998239      -2.71013474       0.01890553       0.00000000
Si       2.69927094       2.71383257       0.00163381       0.00000000
Si      -2.69729660       0.02705769      -2.71658990       0.00000000
