10
Lattice="16.290000149 0.0 0.0 0.0 16.290000149 0.0 0.0 0.0 29.1751946751" Properties=species:S:1:pos:R:3:initial_magmoms:R:1 pbc="T T T"
Si       1.30298824      -1.38171781       1.37619393       0.00000000
Si      -1.37326330      -1.38315133      -1.31066645       0.00000000
Si      -1.32251995       1.37088496       1.37485187       0.00000000
Si       1.35288451       1.34845363      -1.37479352       0.00000000
Si      -2.68260464       2.69612534      -0.01709666       0.00000000
Si       2.68142036      -0.01764207       2.70608683       0.00000000
Si      -0.00285075      -2.72387047      -2.67589051       0.00000000
Si      -2.69757515      -0.01910817      -2.70322766       0.00000000
Si       2.69541673       2.70969491      -0.02123954       0.00000000
Si      -2.66506031       0.02334357       2.74605685       0.00000000
