10
Lattice="16.290000149 0.0 0.0 0.0 16.290000149 0.0 0.0 0.0 29.1751946751" Properties=species:S:1:pos:R:3:initial_magmoms:R:1 pbc="T T T"
Si      -1.33695289      -1.44832762       1.25587543       0.00000000
Si       1.34335486      -1.36578619      -1.35113244       0.00000000
Si      -1.38730528       1.34174215      -1.34818575       0.00000000
Si       1.25727850       1.36896274       1.45598809       0.00000000
Si      -2.69855255      -0.07825716       2.51796518       0.00000000
Si       2.63624330       2.69457779       0.06573171       0.00000000
Si      -0.02788848       2.70563870      -2.69024470       0.00000000
Si       2.69094868      -0.01215234      -2.70891683       0.00000000
Si       2.68640021      -2.72251514       0.01884718       0.00000000
Si      -0.02757897      -2.71365338      -2.70696209       0.00000000
