10
Lattice="16.290000149 0.0 0.0 0.0 16.290000149 0.0 0.0 0.0 29.1751946751" Properties=species:S:1:pos:R:3:initial_magmoms:R:1 pbc="T T T"
Si      -1.47209799       1.20824560       1.33499856       0.00000000
Si       1.18616939       1.52474401      -1.31863127       0.00000000
Si      -0.22665092      -1.85127707      -1.43752019       0.00000000
Si       1.42859718      -1.18964242       1.45234119       0.00000000
H       -2.94901456      -1.25887492      -1.42161971       0.00000000
Si       2.08721817      -2.03090690      -2.02846376       0.00000000
Si      -2.62173217      -0.43096824       2.52018249       0.00000000
Si       2.56943476       0.17640441      -2.63186514       0.00000000
Si       3.15056422      -1.94945690       0.07699334       0.00000000
Si      -0.01429285       2.58970277       2.68974872       0.00000000
