10
Lattice="16.290000149 0.0 0.0 0.0 16.290000149 0.0 0.0 0.0 29.1751946751" Properties=species:S:1:pos:R:3:initial_magmoms:R:1 pbc="T T T"
Si      -0.37476774      -0.64628947      -2.22466694       0.00000000
Si      -1.99212041      -0.60181777       1.16992531       0.00000000
Si       0.77195053       2.04157685       1.00823638       0.00000000
Si       1.48553398      -1.86932639       0.35407016       0.00000000
H       -2.24676569       2.08503857      -0.27121261       0.00000000
Si       1.79512544       0.70547104       2.62696370       0.00000000
H        2.75928168       1.95800915      -0.04901433       0.00000000
Si      -2.14076666      -2.13012929      -1.89101942       0.00000000
Si      -1.06372072      -1.64395424       3.00431567       0.00000000
H       -0.45150993       3.29673765      -1.35545037       0.00000000
