10
Lattice="16.290000149 0.0 0.0 0.0 16.290000149 0.0 0.0 0.0 29.1751946751" Properties=species:S:1:pos:R:3:initial_magmoms:R:1 pbc="T T T"
Si       1.39768201       1.41731961       1.26211892       0.00000000
Si      -1.26208405       1.38927311      -1.43323144       0.00000000
Si       1.42921945      -1.28396152      -1.41167097       0.00000000
Si      -1.29469663      -1.59337378       1.27510188       0.00000000
Si      -2.52661160      -2.73118143      -0.34969388       0.00000000
Si       0.28271295      -2.68097564       2.59825531       0.00000000
Si      -2.58442481       2.78467779      -0.06876593       0.00000000
Si       2.86609125       0.11822891       2.53371978       0.00000000
Si      -2.56842803       0.07449417      -2.87979594       0.00000000
Si       2.86852880      -2.63212193      -0.12370283       0.00000000
