10
Lattice="16.290000149 0.0 0.0 0.0 16.290000149 0.0 0.0 0.0 29.1751946751" Properties=species:S:1:pos:R:3:initial_magmoms:R:1 pbc="T T T"
Si       1.32022306      -1.44045955       1.27594796       0.00000000
Si      -1.34850250      -1.36096435      -1.34914853       0.00000000
Si       1.38875509       1.35953083      -1.31349644       0.00000000
Si      -1.29057526       1.36801792       1.41280880       0.00000000
Si       2.74747143      -0.05186736       2.45523851       0.00000000
Si       0.01886382       2.70145217      -2.66670032       0.00000000
Si      -2.66435984       2.71961552       0.06701542       0.00000000
Si      -2.71622720      -0.00426798      -2.67682411       0.00000000
Si      -0.06483420      -2.77405671       2.61716084       0.00000000
Si       2.74102059      -0.01034415      -2.66413290       0.00000000
