10
Lattice="16.290000149 0.0 0.0 0.0 16.290000149 0.0 0.0 0.0 29.1751946751" Properties=species:S:1:pos:R:3:initial_magmoms:R:1 pbc="T T T"
Si       1.35117406       1.38649078       1.32184055       0.00000000
Si      -1.33943060       1.35956341      -1.36175221       0.00000000
Si       1.38833155      -1.35140212      -1.33283959       0.00000000
Si      -1.35046545      -1.36475992       1.36391118       0.00000000
Si       2.66154167      -0.03888423       2.61999083       0.00000000
Si      -2.66626577       2.70858719       0.03480601       0.00000000
Si       0.04018743      -2.71309952      -2.68327183       0.00000000
Si      -2.69101028       0.00663003      -2.72341690       0.00000000
Si      -2.69299766      -2.72600120       0.01035719       0.00000000
Si       0.01940139       2.71050941      -2.72490483       0.00000000
