10
Lattice="16.290000149 0.0 0.0 0.0 16.290000149 0.0 0.0 0.0 29.1751946751" Properties=species:S:1:pos:R:3:initial_magmoms:R:1 pbc="T T T"
Si       1.36999879       1.36901161       1.32542909       0.00000000
Si       1.37954147      -1.34873382      -1.34077525       0.00000000
Si      -1.32550102       1.38316762      -1.36014758       0.00000000
Si      -1.35117406      -1.35135651       1.37353899       0.00000000
Si      -2.68299560      -2.70629030      -0.01000709       0.00000000
Si      -2.69404022       0.03419271      -2.69832623       0.00000000
Si       0.00456120       2.72096759       2.67463597       0.00000000
Si       2.69812901       0.00814500       2.69996004       0.00000000
Si       2.70379793       0.03515382      -2.70246911       0.00000000
Si      -2.69039126       2.73096965      -0.01000709       0.00000000
