10
Lattice="16.290000149 0.0 0.0 0.0 16.290000149 0.0 0.0 0.0 29.1751946751" Properties=species:S:1:pos:R:3:initial_magmoms:R:1 pbc="T T T"
Si       1.61241679      -0.17744697      -1.67675679       0.00000000
Si      -0.43319997       2.29116897      -0.30027110       0.00000000
Si       0.24913926      -0.51352596       2.29806648       0.00000000
Si      -1.89732890      -1.30078909      -0.63269327       0.00000000
H        1.32776533      -2.22622400       1.50838674       0.00000000
H       -2.78228316      -0.44927820      -1.51953166       0.00000000
Si      -1.49633425       1.02879496       2.75045063       0.00000000
Si       0.05020578      -0.95475691      -3.27138540       0.00000000
Si      -2.32968179       2.27332816       1.03729487       0.00000000
Si      -0.86667688      -2.78935302      -2.10274381       0.00000000
