10
Lattice="16.290000149 0.0 0.0 0.0 16.290000149 0.0 0.0 0.0 29.1751946751" Properties=species:S:1:pos:R:3:initial_magmoms:R:1 pbc="T T T"
Si      -1.35563752      -1.31514058       1.39876678       0.00000000
Si       1.34376211       1.36914193       1.36302717       0.00000000
Si      -1.37388232       1.35149986      -1.36099074       0.00000000
Si       1.42728094      -1.37544616      -1.29285207       0.00000000
Si      -2.67701717      -2.65562840       0.00515234       0.00000000
Si      -2.54676233      -0.11515401      -2.81188484       0.00000000
Si       2.68625360      -0.00895950      -2.72042060       0.00000000
Si       2.71070489       2.71880102       0.01204352       0.00000000
Si      -0.00302994      -2.68234400       2.75509241       0.00000000
Si       2.80245018      -2.63990855       0.12418422       0.00000000
