10
Lattice="16.290000149 0.0 0.0 0.0 16.290000149 0.0 0.0 0.0 29.1751946751" Properties=species:S:1:pos:R:3:initial_magmoms:R:1 pbc="T T T"
Si      -1.36630747      -1.35637057      -1.33178929       0.00000000
Si      -1.43682688       1.33503067       1.28102445       0.00000000
Si       1.35340579       1.35187453      -1.36128541       0.00000000
Si       1.36241416      -1.32553360       1.38124124       0.00000000
Si      -0.08746101       2.67765248       2.59452089       0.00000000
Si      -0.09529650      -2.62394435       2.68333018       0.00000000
Si       0.00369783      -2.71394660      -2.66389950       0.00000000
Si      -2.71073747       0.02603142      -2.67419834       0.00000000
Si       2.73184931      -0.01402569      -2.67320639       0.00000000
Si       2.73056240       2.69167817      -0.02847499       0.00000000
