10
Lattice="16.290000149 0.0 0.0 0.0 16.290000149 0.0 0.0 0.0 29.1751946751" Properties=species:S:1:pos:R:3:initial_magmoms:R:1 pbc="T T T"
Si       1.31181742       1.35995437       1.34515736       0.00000000
Si      -1.37516923       1.26446239      -1.41703629       0.00000000
Si       1.28824579      -1.44865342      -1.32755305       0.00000000
Si      -1.42772077      -1.39131262       1.28030090       0.00000000
Si      -2.18649269      -0.59644207      -2.59361062       0.00000000
Si      -0.55188892      -2.33051258      -2.51016081       0.00000000
Si       2.62036055       2.64898208      -0.12559630       0.00000000
Si       2.62884764      -0.03184695       2.68602013       0.00000000
Si      -0.10720449       2.69047271       2.64683785       0.00000000
Si       2.53710236      -2.82022257       0.08467517       0.00000000
