10
Lattice="16.290000149 0.0 0.0 0.0 16.290000149 0.0 0.0 0.0 29.1751946751" Properties=species:S:1:pos:R:3:initial_magmoms:R:1 pbc="T T T"
Si      -2.29894256      -0.09944393       0.35392429       0.00000000
H       -0.90098362       1.53823213      -1.53972090       0.00000000
Si       0.97560811      -0.40504108      -2.15029937       0.00000000
Si       1.03953007       2.14700573       0.38365381       0.00000000
Si       0.05186736      -2.06140178       1.28589671       0.00000000
H       -2.91411813       1.18661248      -0.07063315       0.00000000
Si       2.85290031       1.25970571       1.53875812       0.00000000
Si       2.89522173      -1.46633622      -1.37558125       0.00000000
Si       3.52895160      -0.79254272       0.77188813       0.00000000
Si      -3.14296005      -1.75648556      -1.05129896       0.00000000
