10
Lattice="16.290000149 0.0 0.0 0.0 16.290000149 0.0 0.0 0.0 29.1751946751" Properties=species:S:1:pos:R:3:initial_magmoms:R:1 pbc="T T T"
Si       1.35812989       1.36824598       1.33456093       0.00000000
Si      -1.32892518       1.36102951      -1.37339311       0.00000000
Si       1.38422647      -1.35498755      -1.33409413       0.00000000
Si      -1.34694518      -1.35612459       1.37464765       0.00000000
Si       2.71673219       0.00094482       2.66807155       0.00000000
Si      -2.69943221      -0.00812871      -2.69785943       0.00000000
Si       0.02676447      -2.71761185      -2.68365111       0.00000000
Si       0.06074541      -2.69749370       2.70349024       0.00000000
Si      -0.01954800       2.71606430       2.68948615       0.00000000
Si      -2.69470811       2.71295291      -0.02468221       0.00000000
