10
Lattice="16.290000149 0.0 0.0 0.0 16.290000149 0.0 0.0 0.0 29.1751946751" Properties=species:S:1:pos:R:3:initial_magmoms:R:1 pbc="T T T"
Si       1.34146034      -1.34187247       1.37035889       0.00000000
Si      -1.25415750       1.37648872       1.42185311       0.00000000
Si      -1.38281413      -1.36267480      -1.32580837       0.00000000
Si       1.34406674       1.37222074      -1.35559625       0.00000000
Si       2.65085055       0.12044826       2.65680993       0.00000000
Si       0.01666956      -2.69996816      -2.67043474       0.00000000
Si      -2.68601414       0.02107926      -2.69724675       0.00000000
Si      -2.66299637       2.72230337       0.08361611       0.00000000
Si      -0.06784133      -2.68146597       2.70952950       0.00000000
Si       2.72174463       0.02440242      -2.71052146       0.00000000
