10
Lattice="16.290000149 0.0 0.0 0.0 16.290000149 0.0 0.0 0.0 29.1751946751" Properties=species:S:1:pos:R:3:initial_magmoms:R:1 pbc="T T T"
Si      -1.37197639      -1.40615281      -1.31186555       0.00000000
Si      -1.34651512       1.27887904       1.46045189       0.00000000
Si       1.33931494      -1.33656193       1.42141548       0.00000000
Si       1.34149780       1.41809338      -1.35986166       0.00000000
Si       2.67204872      -0.02187747      -2.67381323       0.00000000
Si       0.05932818      -2.77806405      -2.59604967       0.00000000
Si      -2.68051952      -2.69518052       0.15888811       0.00000000
Si      -2.77944870       2.59835276       0.17732683       0.00000000
Si      -2.72064179      -0.04455315      -2.68878011       0.00000000
Si       2.68814324       2.75125071       0.02856252       0.00000000
