10
Lattice="16.290000149 0.0 0.0 0.0 16.290000149 0.0 0.0 0.0 29.1751946751" Properties=species:S:1:pos:R:3:initial_magmoms:R:1 pbc="T T T"
Si      -0.91349434       0.91057843      -0.77894852       0.00000000
Si       0.90098362      -1.53823213       1.53972090       0.00000000
H       -2.01313451      -0.35161965       1.46908775       0.00000000
Si       1.87659173      -1.94327321      -0.61057847       0.00000000
Si       1.94051369       0.60877360       1.92337471       0.00000000
Si      -1.39795894      -1.63767607       1.89364519       0.00000000
Si      -2.22288455      -0.55174231      -2.06539956       0.00000000
Si       0.43754940       2.23062230      -2.15805997       0.00000000
Si      -2.01989486       2.35110314       0.69238572       0.00000000
Si       3.05509179       2.05149746       0.37315074       0.00000000
