10
Lattice="16.290000149 0.0 0.0 0.0 16.290000149 0.0 0.0 0.0 29.1751946751" Properties=species:S:1:pos:R:3:initial_magmoms:R:1 pbc="T T T"
Si       1.35563752       1.34063443      -1.31494353       0.00000000
Si       1.43293357      -1.31947372       1.28312506       0.00000000
Si      -1.33591033       1.44132292       1.28881422       0.00000000
Si      -1.30463353      -1.29477808      -1.47573678       0.00000000
Si      -0.05072706       2.70430292      -2.56926100       0.00000000
Si       0.05323572      -2.63691119       2.64721129       0.00000000
Si      -2.67157631      -2.64443717      -0.12475313       0.00000000
Si      -2.69913899       0.07943004       2.61826950       0.00000000
Si       2.77944870      -2.59835276      -0.17732683       0.00000000
Si       2.76817602       0.08478945       2.62118702       0.00000000
