10
Lattice="16.290000149 0.0 0.0 0.0 16.290000149 0.0 0.0 0.0 29.1751946751" Properties=species:S:1:pos:R:3:initial_magmoms:R:1 pbc="T T T"
Si       1.34703640       1.35711991       1.36221901       0.00000000
Si      -1.35260758       1.36720342      -1.35632563       0.00000000
Si      -1.36041049      -1.34446258       1.37202188       0.00000000
Si       1.37775934      -1.34887717      -1.35060729       0.00000000
Si      -0.05131350      -2.75366163      -2.59166464       0.00000000
Si       2.67807602      -2.69819417       0.06777398       0.00000000
Si      -0.02256165       2.72093501       2.69815118       0.00000000
Si       2.69351894      -0.00154755       2.73088575       0.00000000
Si      -2.67398723       0.02671560      -2.74994007       0.00000000
Si       2.69827562       2.73290816       0.01592966       0.00000000
