10
Lattice="16.290000149 0.0 0.0 0.0 16.290000149 0.0 0.0 0.0 29.1751946751" Properties=species:S:1:pos:R:3:initial_magmoms:R:1 pbc="T T T"
Si      -1.29906903      -1.29017941       1.47206362       0.00000000
Si      -1.45053345       1.38497581      -1.22516562       0.00000000
Si       1.36145778       1.39515706       1.31860210       0.00000000
Si       1.43216126      -1.30644172      -1.35250951       0.00000000
Si      -2.62393474      -2.62645139       0.13485650       0.00000000
Si      -0.12970766       2.71080263      -2.59050346       0.00000000
Si       0.08584553      -2.51941256      -2.83489532       0.00000000
Si       2.71040500      -2.67981905       0.03518528       0.00000000
Si       2.65565431       0.04237029       2.75046230       0.00000000
Si       0.01089133       2.72144000       2.72478813       0.00000000
