10
Lattice="16.290000149 0.0 0.0 0.0 16.290000149 0.0 0.0 0.0 29.1751946751" Properties=species:S:1:pos:R:3:initial_magmoms:R:1 pbc="T T T"
Si      -0.93299836       0.80441487       2.00057227       0.00000000
Si       1.36161107       1.39095261      -1.32858002       0.00000000
Si      -1.87330603      -0.91634672      -1.10209298       0.00000000
Si       1.83757229      -1.17947909       0.93693220       0.00000000
H        2.62235934       1.38179763      -0.48559194       0.00000000
H       -2.94401516       0.17200937      -1.06509883       0.00000000
Si       0.52337653      -2.60998545       2.28336744       0.00000000
Si       1.95782507      -0.13403249      -3.08869033       0.00000000
Si       0.40065744       2.78223266       2.49051132       0.00000000
Si      -0.64821266      -1.02058757       3.57116053       0.00000000
