10
Lattice="16.290000149 0.0 0.0 0.0 16.290000149 0.0 0.0 0.0 29.1751946751" Properties=species:S:1:pos:R:3:initial_magmoms:R:1 pbc="T T T"
Si       1.34553121       1.32950836      -1.38119748       0.00000000
Si      -1.33096469      -1.36042678      -1.37839083       0.00000000
Si      -1.35481325       1.38825010       1.32983455       0.00000000
Si       1.36946122      -1.34910523       1.36335685       0.00000000
Si      -2.62645953      -2.67457367       0.09105578       0.00000000
Si       2.70822230       2.69661404      -0.01770934       0.00000000
Si      -2.69559429       0.03513753       2.71521867       0.00000000
Si      -0.03965638       2.66984957      -2.75324270       0.00000000
Si       0.00974468       2.71813313       2.70842085       0.00000000
Si       2.72988800       0.00514764       2.71647320       0.00000000
