10
Lattice="16.290000149 0.0 0.0 0.0 16.290000149 0.0 0.0 0.0 29.1751946751" Properties=species:S:1:pos:R:3:initial_magmoms:R:1 pbc="T T T"
Si      -1.43293357       1.31947372      -1.28312506       0.00000000
Si      -1.37969785      -1.31743747       1.36408623       0.00000000
Si       1.33524244       1.40426317       1.33806195       0.00000000
Si       1.34651512      -1.27887904      -1.46045189       0.00000000
Si      -0.07729605       2.66010815      -2.59806859       0.00000000
Si       2.68583006      -2.61544097      -0.03903641       0.00000000
Si      -0.02391372      -2.68775228       2.70287756       0.00000000
Si      -2.75302632      -2.64354122       0.00011670       0.00000000
Si       2.69764031       0.06441066       2.70206065       0.00000000
Si      -2.74895382       0.06139701       2.68648110       0.00000000
