10
Lattice="16.290000149 0.0 0.0 0.0 16.290000149 0.0 0.0 0.0 29.1751946751" Properties=species:S:1:pos:R:3:initial_magmoms:R:1 pbc="T T T"
Si      -1.34703640      -1.35711991      -1.36221901       0.00000000
Si      -1.36959805       1.36381510       1.33593216       0.00000000
Si       1.35123922       1.37578825      -1.34628936       0.00000000
Si       1.34648254      -1.35866746       1.36866673       0.00000000
Si      -0.00478926       2.71836119       2.68411791       0.00000000
Si      -2.70744689      -2.70158249       0.00980287       0.00000000
Si      -2.69964398       0.01008351      -2.71854464       0.00000000
Si       0.03072294      -2.70599708      -2.71282630       0.00000000
Si       2.77026114       0.04526991      -2.64796984       0.00000000
Si       2.71666703      -2.70492194       0.03013798       0.00000000
