10
Lattice="16.290000149 0.0 0.0 0.0 16.290000149 0.0 0.0 0.0 29.1751946751" Properties=species:S:1:pos:R:3:initial_magmoms:R:1 pbc="T T T"
Si      -1.37885077       1.34702011       1.32149044       0.00000000
Si      -1.37023336      -1.36124128      -1.32758806       0.00000000
Si       1.35132067       1.39092166      -1.32840496       0.00000000
Si       1.35570268      -1.33007851       1.38771813       0.00000000
Si       0.04147434       2.65685015       2.63504523       0.00000000
Si       0.01492164      -2.67543704      -2.68618935       0.00000000
Si       2.70280424      -2.67688685       0.02013088       0.00000000
Si      -2.72601749       0.00907353      -2.66637939       0.00000000
Si      -2.72728812      -0.01106091       2.67495690       0.00000000
Si       2.69573438       0.06068025      -2.71530619       0.00000000
