10
Lattice="16.290000149 0.0 0.0 0.0 16.290000149 0.0 0.0 0.0 29.1751946751" Properties=species:S:1:pos:R:3:initial_magmoms:R:1 pbc="T T T"
H       -0.60235534      -0.09663228      -1.40110955       0.00000000
Si      -1.70414579       0.46493289       1.52361619       0.00000000
Si       0.48495330      -2.02831679       1.05576277       0.00000000
H        1.50301315      -0.86322340      -1.70829517       0.00000000
Si       1.90560422       1.49824018       0.30911119       0.00000000
H       -1.98501797      -2.58370805      -0.20944872       0.00000000
Si       0.82443691      -0.92165563      -3.05528474       0.00000000
Si      -2.54917325       2.30454632       0.39158946       0.00000000
Si      -0.32068494       1.48427965       3.15299246       0.00000000
Si       2.08613000      -1.21148731       2.60951694       0.00000000
