10
Lattice="16.290000149 0.0 0.0 0.0 16.290000149 0.0 0.0 0.0 29.1751946751" Properties=species:S:1:pos:R:3:initial_magmoms:R:1 pbc="T T T"
Si       1.07070913      -1.08835609      -0.03699415       0.00000000
Si      -1.83677897       1.88362412      -0.74933570       0.00000000
Si      -0.28958733       2.60057961       0.84841466       0.00000000
Si      -1.80706601      -0.54852503       2.35073296       0.00000000
Si      -0.23297958       1.14122365       2.78684377       0.00000000
H        1.29854107       2.21193278      -1.78972314       0.00000000
Si       2.94401516      -0.17200937       1.06509883       0.00000000
Si      -1.24232428       0.79885672      -2.79510035       0.00000000
Si       0.23855076      -3.01714097       0.97424728       0.00000000
Si       1.34685721      -1.83764722      -2.23858351       0.00000000
