10
Lattice="16.290000149 0.0 0.0 0.0 16.290000149 0.0 0.0 0.0 29.1751946751" Properties=species:S:1:pos:R:3:initial_magmoms:R:1 pbc="T T T"
Si       1.24885657      -1.37156914       1.41222822       0.00000000
Si      -1.28824579       1.44865342       1.32755305       0.00000000
Si       1.90713548       0.78954373      -1.12420778       0.00000000
Si      -1.84013471      -0.88185916      -1.18260776       0.00000000
H        0.69429610      -1.82926928      -1.92182842       0.00000000
Si       1.25708302       1.21275793      -3.25738131       0.00000000
Si       2.66794364       0.05774805       2.64782397       0.00000000
Si      -2.71596656       0.05734080       2.60785395       0.00000000
Si       2.74670580      -2.60683985       0.13164723       0.00000000
Si      -3.47473848       0.85221136      -1.26605757       0.00000000
