10
Lattice="16.290000149 0.0 0.0 0.0 16.290000149 0.0 0.0 0.0 29.1751946751" Properties=species:S:1:pos:R:3:initial_magmoms:R:1 pbc="T T T"
Si      -0.83334754       1.24453321      -1.71315576       0.00000000
Si      -1.83321146      -1.02192058       0.94046824       0.00000000
Si       1.03957894       1.85479571       0.95022734       0.00000000
Si       1.74547352      -1.54232092      -0.45238415       0.00000000
H       -1.01283076       2.63236628      -1.10324832       0.00000000
Si      -0.42684687      -2.38558907       2.19478571       0.00000000
Si       1.49633425      -1.02879496      -2.75045063       0.00000000
Si       2.45622251       0.51126328       2.20455648       0.00000000
Si       1.06313428       1.26237401      -3.05072174       0.00000000
Si       0.99554707      -0.92563039       3.41914026       0.00000000
