10
Lattice="16.290000149 0.0 0.0 0.0 16.290000149 0.0 0.0 0.0 29.1751946751" Properties=species:S:1:pos:R:3:initial_magmoms:R:1 pbc="T T T"
Si       1.25415750      -1.37648872      -1.42185311       0.00000000
Si       1.35448110       1.39794265       1.32939692       0.00000000
Si      -1.31764745      -1.33156090       1.43912483       0.00000000
Si      -1.40883887       1.34581465      -1.33823700       0.00000000
Si       2.59561784      -2.71836119      -0.05149422       0.00000000
Si      -0.08798050       2.63221967       2.70080612       0.00000000
Si       2.59822424      -0.00426798      -2.77744936       0.00000000
Si      -2.73961785      -2.63948501       0.05449926       0.00000000
Si      -0.05440681       2.69175962      -2.73216946       0.00000000
Si      -2.79197391       2.69408909       0.02088944       0.00000000
