10
Lattice="16.290000149 0.0 0.0 0.0 16.290000149 0.0 0.0 0.0 29.1751946751" Properties=species:S:1:pos:R:3:initial_magmoms:R:1 pbc="T T T"
Si      -1.35870004      -1.36531378      -1.33070980       0.00000000
Si      -1.34710156       1.34680834       1.36758725       0.00000000
Si       1.33664338      -1.37536471       1.35238697       0.00000000
Si       1.33807690       1.35505108      -1.38275835       0.00000000
Si      -2.70280424       2.67688685      -0.02013088       0.00000000
Si       2.67921958      -0.01316232       2.70474477       0.00000000
Si       0.00677664      -2.71274114      -2.68050019       0.00000000
Si      -2.68788260       0.00144981      -2.70632023       0.00000000
Si       2.69123346       2.70694190      -0.02339851       0.00000000
Si      -2.69954624      -0.02814912       2.71142589       0.00000000
