10
Lattice="16.290000149 0.0 0.0 0.0 16.290000149 0.0 0.0 0.0 29.1751946751" Properties=species:S:1:pos:R:3:initial_magmoms:R:1 pbc="T T T"
Si       1.38945556      -1.35088084       1.32831744       0.00000000
Si       1.37562535       1.34926813      -1.34964451       0.00000000
Si      -1.31476345      -1.36542781      -1.39416585       0.00000000
Si      -1.36998901       1.33954300       1.37978248       0.00000000
Si      -2.66295890      -2.71894763      -0.03714002       0.00000000
Si       0.03087281      -2.70785414       2.67743679       0.00000000
Si      -2.70239699       2.70721883       0.00916101       0.00000000
Si       0.02940019       2.71048498      -2.70462807       0.00000000
Si      -2.68315850      -0.00824274      -2.73427007       0.00000000
Si       0.00191570       2.71075539       2.70865425       0.00000000
