10
Lattice="16.290000149 0.0 0.0 0.0 16.290000149 0.0 0.0 0.0 29.1751946751" Properties=species:S:1:pos:R:3:initial_magmoms:R:1 pbc="T T T"
H        0.67857625       0.05843223       1.34698956       0.00000000
H       -1.42679224       0.82502335       1.65417519       0.00000000
Si       1.60585192      -0.78763780      -1.51559301       0.00000000
Si      -1.86241943      -1.45766179      -0.15468688       0.00000000
Si      -0.35344413       1.95284522      -1.36175221       0.00000000
H        1.84443527       1.70593769       0.21712180       0.00000000
H        2.50338206       1.29500614       0.25857975       0.00000000
Si      -0.82443691       0.92165563       3.05528474       0.00000000
Si       0.11380194      -1.80107129      -2.98249263       0.00000000
Si      -1.00077616      -3.24379515      -1.43226866       0.00000000
