10
Lattice="16.290000149 0.0 0.0 0.0 16.290000149 0.0 0.0 0.0 29.1751946751" Properties=species:S:1:pos:R:3:initial_magmoms:R:1 pbc="T T T"
H        1.36446670       0.47943099       0.84406756       0.00000000
Si       1.35384074      -1.18575074      -1.54552676       0.00000000
Si      -1.15012288       1.54064305      -1.39407833       0.00000000
Si      -1.34377840      -1.31763295       1.49085245       0.00000000
Si       1.54291551       2.06146694       1.42692960       0.00000000
H        2.97289245       0.35396541       0.64978994       0.00000000
H        0.25792658       2.82822096       1.56084374       0.00000000
Si      -2.51077772      -2.44090242      -0.22202323       0.00000000
H       -0.77688640       1.02211606       3.46335818       0.00000000
Si       2.74405053      -2.58913262      -0.33087588       0.00000000
