10
Lattice="16.290000149 0.0 0.0 0.0 16.290000149 0.0 0.0 0.0 29.1751946751" Properties=species:S:1:pos:R:3:initial_magmoms:R:1 pbc="T T T"
Si      -1.35702217       1.40947597      -1.31343809       0.00000000
Si       1.17288001       1.46665387       1.45089410       0.00000000
Si      -1.48780155      -1.20111058       1.43453849       0.00000000
Si       1.01037097      -1.23468427      -1.84495179       0.00000000
Si      -1.04751217      -2.24319818      -2.55408407       0.00000000
Si      -2.46818263      -0.29849796      -2.55633056       0.00000000
Si       2.39894687       0.51041457      -2.74935365       0.00000000
Si       2.54676233       0.11515401       2.81188484       0.00000000
Si      -0.13025484      -2.54047439       2.81703718       0.00000000
Si       2.47197494       2.95310010       0.17849472       0.00000000
