10
Lattice="16.290000149 0.0 0.0 0.0 16.290000149 0.0 0.0 0.0 29.1751946751" Properties=species:S:1:pos:R:3:initial_magmoms:R:1 pbc="T T T"
Si      -1.35907471       1.35174421       1.35419584       0.00000000
Si      -1.35782038      -1.34366437      -1.36496148       0.00000000
Si       1.32287833      -1.36518346       1.39203606       0.00000000
Si       1.35597961       1.37741725      -1.35556707       0.00000000
Si       2.69640227       0.01933623       2.70004757       0.00000000
Si       2.69477327      -2.70524774       0.02736633       0.00000000
Si       0.01513341       2.71458191       2.68656863       0.00000000
Si      -2.72207531      -2.69220271      -0.01671739       0.00000000
Si       0.00428427      -2.70701032      -2.70958786       0.00000000
Si      -2.71412579       2.70285311      -0.01476265       0.00000000
