10
Lattice="16.290000149 0.0 0.0 0.0 16.290000149 0.0 0.0 0.0 29.1751946751" Properties=species:S:1:pos:R:3:initial_magmoms:R:1 pbc="T T T"
Si      -1.33568879      -1.37648872      -1.34413039       0.00000000
Si       1.34303884      -1.35692443       1.36443633       0.00000000
Si      -1.38908741       1.36031275       1.32207395       0.00000000
Si       1.33082134       1.35858601      -1.38246660       0.00000000
Si      -2.66509941       0.03311757      -2.65476766       0.00000000
Si      -0.03593085       2.71220357       2.68143379       0.00000000
Si       2.69124812       2.71283888      -0.02935025       0.00000000
Si       2.69144360       0.00544086       2.71393496       0.00000000
Si       2.70199952      -2.71225244       0.01044472       0.00000000
Si       2.70980243      -0.00058644      -2.71790279       0.00000000
