10
Lattice="16.290000149 0.0 0.0 0.0 16.290000149 0.0 0.0 0.0 29.1751946751" Properties=species:S:1:pos:R:3:initial_magmoms:R:1 pbc="T T T"
Si       1.42032511       1.30983004       1.31355479       0.00000000
Si       1.37885077      -1.34702011      -1.32149044       0.00000000
Si      -1.34843734      -1.35808102       1.35346646       0.00000000
Si      -1.36195804       1.39413079      -1.30497728       0.00000000
Si       0.05887206       2.67928148       2.57640309       0.00000000
Si       0.00861741      -2.70826139      -2.64907850       0.00000000
Si       2.73017144       0.04390155      -2.64989541       0.00000000
Si      -2.71642268       0.04088790      -2.66547496       0.00000000
Si       0.01228266       2.73629648      -2.64829077       0.00000000
Si       2.73455345      -2.67709862       0.06622769       0.00000000
