10
Lattice="16.290000149 0.0 0.0 0.0 16.290000149 0.0 0.0 0.0 29.1751946751" Properties=species:S:1:pos:R:3:initial_magmoms:R:1 pbc="T T T"
Si       0.17948322      -1.38783308      -0.60990744       0.00000000
Si      -0.69429610       1.82926928       1.92182842       0.00000000
Si      -0.51388434       1.28381491      -2.39642132       0.00000000
Si      -2.53443080       0.94741012       0.73922066       0.00000000
Si      -2.44750736       0.25216920      -1.48813915       0.00000000
Si       1.21283938       2.61881300       0.79762065       0.00000000
Si       2.05240970      -0.77757058       2.05347565       0.00000000
Si       1.01283076      -2.63236628       1.10324832       0.00000000
Si       2.91856530       0.95039119       0.67022453       0.00000000
Si       2.07596504      -1.36999227      -1.94747342       0.00000000
