10
Lattice="16.290000149 0.0 0.0 0.0 16.290000149 0.0 0.0 0.0 29.1751946751" Properties=species:S:1:pos:R:3:initial_magmoms:R:1 pbc="T T T"
Si      -0.64259164       0.84193237      -1.08026993       0.00000000
Si       2.15449913       0.25581816       1.31562623       0.00000000
Si       2.25909722      -1.47463597      -0.49093100       0.00000000
Si       0.39198627       1.22600170       2.57584876       0.00000000
Si      -2.07228350       2.07006806       0.20457647       0.00000000
Si       0.41927202      -2.66052192      -1.49379914       0.00000000
Si      -2.08733546      -0.48710358      -2.28570145       0.00000000
Si      -1.37349136      -0.25995582       2.90990474       0.00000000
Si      -0.69744007      -2.31220425       2.14303475       0.00000000
Si       0.85893913       2.20441169      -2.24050907       0.00000000
