10
Lattice="16.290000149 0.0 0.0 0.0 16.290000149 0.0 0.0 0.0 29.1751946751" Properties=species:S:1:pos:R:3:initial_magmoms:R:1 pbc="T T T"
Si       0.93643066      -1.04137084       1.83441954       0.00000000
Si      -0.75385234      -2.05229567      -0.87884439       0.00000000
Si      -1.29339343       1.49465638       1.32694620       0.00000000
Si       1.99617662       0.59898331      -1.16799974       0.00000000
H       -0.27533358       2.65974977      -1.43711174       0.00000000
Si      -0.14131575      -1.52977762      -3.06126565       0.00000000
Si       2.27444240      -2.58455513       0.68141585       0.00000000
Si      -0.99719236      -2.07301655       2.74270170       0.00000000
Si       2.01310193       0.71684146       2.89528797       0.00000000
Si       0.30778326       2.31148586       2.88070037       0.00000000
