10
Lattice="16.290000149 0.0 0.0 0.0 16.290000149 0.0 0.0 0.0 29.1751946751" Properties=species:S:1:pos:R:3:initial_magmoms:R:1 pbc="T T T"
Si      -1.49156128       1.23334849       1.31174593       0.00000000
Si       1.31764745       1.33156090      -1.43912483       0.00000000
Si       1.15012288      -1.54064305       1.39407833       0.00000000
Si      -1.42197040      -1.30792411      -1.38462556       0.00000000
H        1.40804946       1.28757790       2.95492207       0.00000000
H        2.51458958      -1.06121206       2.23814588       0.00000000
Si      -2.87197590      -0.59781043       2.05898101       0.00000000
Si      -2.76737781      -2.32826456       0.25242378       0.00000000
Si       2.50396362      -2.72639379      -0.15144844       0.00000000
Si       2.67212855       2.72950355      -0.10972791       0.00000000
