10
Lattice="16.290000149 0.0 0.0 0.0 16.290000149 0.0 0.0 0.0 29.1751946751" Properties=species:S:1:pos:R:3:initial_magmoms:R:1 pbc="T T T"
Si       1.36322866       1.36189288      -1.32945527       0.00000000
Si      -1.35003376       1.36482508       1.35501274       0.00000000
Si       1.38311875      -1.33750675       1.35133667       0.00000000
Si      -1.33537276      -1.35052246      -1.39396163       0.00000000
Si       2.69913899      -0.07943004      -2.61826950       0.00000000
Si      -2.69039126      -2.69472440      -0.01873047       0.00000000
Si      -0.02164941       2.71919198      -2.66801320       0.00000000
Si       0.02301777      -2.69987204       2.69537954       0.00000000
Si      -2.71788878       0.02002041       2.69707170       0.00000000
Si       0.01729998       2.72635958       2.70672869       0.00000000
