10
Lattice="16.290000149 0.0 0.0 0.0 16.290000149 0.0 0.0 0.0 29.1751946751" Properties=species:S:1:pos:R:3:initial_magmoms:R:1 pbc="T T T"
Si      -1.34664544      -1.33315732      -1.38842417       0.00000000
Si      -1.34385985       1.30279276       1.42398290       0.00000000
Si       1.30297195       1.35415513      -1.43406877       0.00000000
Si       1.34817670      -1.38508984       1.36166469       0.00000000
Si       2.69368999       2.64075563       0.00058350       0.00000000
Si      -2.68956047       2.64769517       0.05817534       0.00000000
Si       2.66333357      -0.10349037      -2.72141256       0.00000000
Si      -2.68814324      -2.75125071      -0.02856252       0.00000000
Si       0.01379763       2.65079027       2.79127840       0.00000000
Si       2.71273463      -0.05520681       2.74025098       0.00000000
