10
Lattice="16.290000149 0.0 0.0 0.0 16.290000149 0.0 0.0 0.0 29.1751946751" Properties=species:S:1:pos:R:3:initial_magmoms:R:1 pbc="T T T"
Si       1.33258391      -1.35909100       1.36181056       0.00000000
Si      -1.34257620      -1.36220239      -1.35235780       0.00000000
Si      -1.32004713       1.33693660       1.40709046       0.00000000
Si       1.35141515       1.36453186      -1.36268582       0.00000000
Si       2.64010078       0.06968862       2.68966120       0.00000000
Si      -2.66136574       2.70112637       0.03334725       0.00000000
Si      -2.67921958       0.01316232      -2.70474477       0.00000000
Si      -2.69749696      -2.71023248       0.02016006       0.00000000
Si       0.02320673      -2.71412579      -2.70106870       0.00000000
Si       2.71026181      -2.70690932       0.00688535       0.00000000
