10
Lattice="16.290000149 0.0 0.0 0.0 16.290000149 0.0 0.0 0.0 29.1751946751" Properties=species:S:1:pos:R:3:initial_magmoms:R:1 pbc="T T T"
H       -1.07070913       1.08835609       0.03699415       0.00000000
Si      -0.83215837      -1.92878489       1.01124142       0.00000000
Si       0.27614808      -0.74929114      -2.20158937       0.00000000
Si       1.87330603       0.91634672       1.10209298       0.00000000
Si       2.55097819      -1.21555981      -2.10134340       0.00000000
Si      -2.39436938      -2.70609482      -0.58338719       0.00000000
Si       0.94030768       1.72076159       3.10266525       0.00000000
H        0.22783194       3.30028887      -1.75272900       0.00000000
Si      -2.87777514       0.53983106       2.38772711       0.00000000
Si       0.93765241      -3.08030871       2.03911271       0.00000000
