10
Lattice="16.290000149 0.0 0.0 0.0 16.290000149 0.0 0.0 0.0 29.1751946751" Properties=species:S:1:pos:R:3:initial_magmoms:R:1 pbc="T T T"
Si      -1.36606312       1.35565381      -1.33068063       0.00000000
Si       1.34863282       1.36151821       1.34847750       0.00000000
Si      -1.37513665      -1.33134913       1.35483769       0.00000000
Si       1.37484343      -1.36423864      -1.33237279       0.00000000
Si       2.66846492      -0.07903908       2.62462969       0.00000000
Si       0.00179190       2.70045848      -2.67273958       0.00000000
Si       0.01003464      -2.71878473      -2.68055854       0.00000000
Si      -2.68503185       2.71725347       0.05907977       0.00000000
Si      -2.70743060      -0.00555489      -2.69572964       0.00000000
Si      -0.06445953      -2.75748978       2.65202520       0.00000000
