10
Lattice="16.290000149 0.0 0.0 0.0 16.290000149 0.0 0.0 0.0 29.1751946751" Properties=species:S:1:pos:R:3:initial_magmoms:R:1 pbc="T T T"
Si       1.34819545       1.35351982      -1.35702583       0.00000000
Si      -1.34438113       1.36466218       1.35084069       0.00000000
Si       1.34244262      -1.36212094       1.36452385       0.00000000
Si      -1.37101528      -1.34804638      -1.35445841       0.00000000
Si      -2.68086161      -0.08211789       2.60899178       0.00000000
Si       2.67170175      -2.70891299      -0.02932107       0.00000000
Si       2.66295890       2.71894763       0.03714002       0.00000000
Si      -0.02019960       2.71070489      -2.69713005       0.00000000
Si       2.69383171       0.01109349       2.71457681       0.00000000
Si      -0.02660157      -2.67828779      -2.74135964       0.00000000
