10
Lattice="16.290000149 0.0 0.0 0.0 16.290000149 0.0 0.0 0.0 29.1751946751" Properties=species:S:1:pos:R:3:initial_magmoms:R:1 pbc="T T T"
Si      -1.43446483       1.32180319       1.28210393       0.00000000
Si      -1.37715661      -1.33980364      -1.33281042       0.00000000
Si       1.34843734       1.35808102      -1.35346646       0.00000000
Si       1.35692443      -1.33483519       1.37736094       0.00000000
Si      -0.00785178       2.71112843       2.46142365       0.00000000
Si       0.00128691      -2.70570386      -2.64473140       0.00000000
Si       2.72728812       0.01106091      -2.67495690       0.00000000
Si      -2.72808632       0.03660363      -2.67489855       0.00000000
Si      -0.01352070       2.75221182      -2.65844374       0.00000000
Si       0.01484019      -2.66719430       2.75002467       0.00000000
