10
Lattice="16.290000149 0.0 0.0 0.0 16.290000149 0.0 0.0 0.0 29.1751946751" Properties=species:S:1:pos:R:3:initial_magmoms:R:1 pbc="T T T"
H        1.23289237      -1.96789718       0.22117715       0.00000000
H       -1.98171110      -0.61313932      -1.08327498       0.00000000
Si       1.87812299       0.71138431       1.27230106       0.00000000
Si      -0.76181815      -1.86973364       1.28187053       0.00000000
Si       0.63724852      -0.33060555      -2.32823889       0.00000000
Si      -1.77999203       1.54714276       0.63421038       0.00000000
H       -2.64065789      -0.20220777      -1.12473293       0.00000000
H        2.84356614       0.45677160      -1.20000493       0.00000000
H        2.32821569       1.99795223       0.61311672       0.00000000
H       -0.42973020       2.16652115      -2.21880273       0.00000000
