10
Lattice="16.290000149 0.0 0.0 0.0 16.290000149 0.0 0.0 0.0 29.1751946751" Properties=species:S:1:pos:R:3:initial_magmoms:R:1 pbc="T T T"
Si      -1.34146034       1.34187247      -1.37035889       0.00000000
Si       1.30939021       1.46232073       1.28645103       0.00000000
Si      -1.40930167      -1.33959350       1.33917061       0.00000000
Si       1.43050636      -1.35209933      -1.32656693       0.00000000
H        2.22288455       0.55174231       2.06539956       0.00000000
H        0.20975004       0.20012265       3.53448731       0.00000000
Si      -0.01909188      -2.74297539       2.55382149       0.00000000
Si      -2.59561784       2.71836119       0.05149422       0.00000000
Si      -2.64730821      -2.68291140      -0.07722674       0.00000000
Si       0.08289981      -2.69946479      -2.71195105       0.00000000
