10
Lattice="16.290000149 0.0 0.0 0.0 16.290000149 0.0 0.0 0.0 29.1751946751" Properties=species:S:1:pos:R:3:initial_magmoms:R:1 pbc="T T T"
Si      -1.30854313      -1.28902771       1.47075366       0.00000000
Si      -1.34866540       1.36159966      -1.37691456       0.00000000
Si       1.43130457      -1.37191123      -1.28418412       0.00000000
Si       1.37197639       1.40615281       1.31186555       0.00000000
Si      -2.62036055      -2.64898208       0.12559630       0.00000000
Si       2.64732050       0.06302601      -2.72598140       0.00000000
Si       2.74642887      -2.63549396       0.18815375       0.00000000
Si      -2.71210583       2.70972749       0.01345560       0.00000000
Si       2.71129133       0.06959088       2.73328103       0.00000000
Si      -2.73655713      -0.01803303      -2.71900853       0.00000000
