10
Lattice="16.290000149 0.0 0.0 0.0 16.290000149 0.0 0.0 0.0 29.1751946751" Properties=species:S:1:pos:R:3:initial_magmoms:R:1 pbc="T T T"
Si      -1.34208424      -1.33235911       1.37266373       0.00000000
Si       1.37362168      -1.35913987      -1.32076106       0.00000000
Si       1.36013356       1.30784266       1.38964370       0.00000000
Si      -1.35692443       1.33483519      -1.37736094       0.00000000
Si      -0.06993297       2.75169054       2.51023375       0.00000000
Si      -0.00058644      -2.72197757      -2.65313385       0.00000000
Si      -2.78158269       0.03684798       2.60604509       0.00000000
Si       2.72606636       0.01581759      -2.66459970       0.00000000
Si       2.70775640       2.69869916       0.04361692       0.00000000
Si      -2.72507267      -2.68237658       0.03235529       0.00000000
