10
Lattice="16.290000149 0.0 0.0 0.0 16.290000149 0.0 0.0 0.0 29.1751946751" Properties=species:S:1:pos:R:3:initial_magmoms:R:1 pbc="T T T"
Si      -1.37000530       1.35757603       1.33211021       0.00000000
Si      -1.37375200      -1.34776945      -1.34194225       0.00000000
Si       1.35005005       1.36519975      -1.35492522       0.00000000
Si       1.37176462      -1.34403904       1.36090613       0.00000000
Si      -0.00369783       2.71394660       2.66389950       0.00000000
Si      -0.01428633      -2.70522983      -2.68140462       0.00000000
Si       2.72023454       0.01894527      -2.69345397       0.00000000
Si       2.72020196      -2.69513491      -0.01126163       0.00000000
Si      -2.70387938       0.02228472      -2.71378908       0.00000000
Si      -2.71746524      -2.70350634       0.02357356       0.00000000
