10
Lattice="16.290000149 0.0 0.0 0.0 16.290000149 0.0 0.0 0.0 29.1751946751" Properties=species:S:1:pos:R:3:initial_magmoms:R:1 pbc="T T T"
Si       1.32082579       1.32582682      -1.36533784       0.00000000
Si      -1.25820703       1.40108662       1.36415625       0.00000000
Si      -1.72388927      -0.93993301      -1.27755814       0.00000000
Si       1.45053345      -1.38497581       1.22516562       0.00000000
Si      -3.42961518       0.72848881      -1.15016203       0.00000000
Si      -2.57333132       2.66466935      -0.10818162       0.00000000
Si      -2.59004486      -2.66789477       0.10569298       0.00000000
Si       2.58524909      -0.10156815      -2.69037891       0.00000000
Si      -2.66880701      -0.00330687       2.62186971       0.00000000
Si       2.81199123       0.01018125       2.54376772       0.00000000
