10
Lattice="16.290000149 0.0 0.0 0.0 16.290000149 0.0 0.0 0.0 29.1751946751" Properties=species:S:1:pos:R:3:initial_magmoms:R:1 pbc="T T T"
Si       1.80411752       1.33390992       0.60620219       0.00000000
Si      -0.74025019      -0.34373041       2.25941460       0.00000000
Si      -1.22417722       1.86616939      -0.95405804       0.00000000
Si       1.60303375      -1.53498717      -1.08067839       0.00000000
H        0.70687198      -2.51716015       0.98889322       0.00000000
H       -1.19047321      -2.94500071      -0.25236543       0.00000000
Si      -0.28585692      -2.87123959      -1.47165517       0.00000000
Si       0.46610577       2.87709421       1.75920589       0.00000000
Si      -1.46751724       1.84544850       2.66748805       0.00000000
Si      -1.18107388      -1.44754245      -3.06044875       0.00000000
