10
Lattice="16.290000149 0.0 0.0 0.0 16.290000149 0.0 0.0 0.0 29.1751946751" Properties=species:S:1:pos:R:3:initial_magmoms:R:1 pbc="T T T"
Si       0.90183070      -0.74246563      -0.97696057       0.00000000
Si      -1.07862607       1.71269804       0.78967974       0.00000000
Si      -1.91282069      -0.28471662       1.88035297       0.00000000
Si      -1.32776533       2.22622400      -1.50838674       0.00000000
Si       2.30377059      -1.91174555       0.48448328       0.00000000
Si      -0.69059827      -1.87256810      -2.31753159       0.00000000
Si       2.05446224       0.89725321      -2.15727224       0.00000000
Si       0.86382613       2.56556099       1.85003410       0.00000000
Si      -0.48563748      -1.65146393       3.21460464       0.00000000
Si      -3.22129866      -1.73108945       0.51030333       0.00000000
