10
Lattice="10.86 0.0 0.0 0.0 10.86 0.0 0.0 0.0 10.86" Properties=species:S:1:pos:R:3:initial_magmoms:R:1 pbc="T T T"
Si       1.28686656      -1.21607022      -1.36846860       0.00000000
Si      -1.83530742       0.46075722      -1.30869516       0.00000000
Si      -1.42813344      -1.21607022       1.34653140       0.00000000
Si       1.28686656       1.49892978       1.34653140       0.00000000
Si       0.29833506       0.76199190      -3.17104398       0.00000000
Si      -2.58976248       2.55190452      -0.13522872       0.00000000
Si       2.64436656      -2.57357022      -0.01096860       0.00000000
Si      -0.07063344      -2.57357022       2.70403140       0.00000000
Si      -0.07063344      -2.57357022      -2.72596860       0.00000000
Si       2.72441562       0.08260116      -2.57841378       0.00000000
