10
Lattice="10.86 0.0 0.0 0.0 10.86 0.0 0.0 0.0 10.86" Properties=species:S:1:pos:R:3:initial_magmoms:R:1 pbc="T T T"
Si      -1.35750000      -1.35750000       1.35750000       0.00000000
Si       1.35750000       1.35750000       1.35750000       0.00000000
Si       1.35750000      -1.35750000      -1.35750000       0.00000000
Si      -1.35750000       1.35750000      -1.35750000       0.00000000
Si      -2.56581618       2.48697258       0.12074148       0.00000000
Si       2.50029780      -0.03632670      -2.64596298       0.00000000
Si       2.73723042       2.48836266      -0.10385418       0.00000000
Si      -2.63495094      -2.77382862       0.14755482       0.00000000
Si       0.00000000       2.71500000       2.71500000       0.00000000
Si       0.00000000      -2.71500000      -2.71500000       0.00000000
