10
Lattice="10.86 0.0 0.0 0.0 10.86 0.0 0.0 0.0 10.86" Properties=species:S:1:pos:R:3:initial_magmoms:R:1 pbc="T T T"
Si      -1.17352074      -1.46663214       1.23428244       0.00000000
Si      -1.17352074       1.24836786      -1.48071756       0.00000000
Si       1.54147926       1.24836786       1.23428244       0.00000000
Si      -2.53102074      -0.10913214       2.59178244       0.00000000
Si      -2.53102074       2.60586786      -0.12321756       0.00000000
Si       0.18397926       2.60586786       2.59178244       0.00000000
Si       0.18397926      -2.82413214       2.59178244       0.00000000
Si       0.18397926       2.60586786      -2.83821756       0.00000000
Si      -2.50879032      -0.33576948      -2.94207174       0.00000000
Si       2.89897926      -0.10913214       2.59178244       0.00000000
