10
Lattice="10.86 0.0 0.0 0.0 10.86 0.0 0.0 0.0 10.86" Properties=species:S:1:pos:R:3:initial_magmoms:R:1 pbc="T T T"
Si      -1.03810740      -1.45888896       1.20408078       0.00000000
Si      -1.03810740       1.25611104      -1.51091922       0.00000000
Si       0.68836110       0.51917316       2.11650540       0.00000000
Si       1.67689260      -1.45888896      -1.51091922       0.00000000
Si      -2.61030960       2.57728434      -0.08438220       0.00000000
Si      -2.39560740      -2.81638896      -0.15341922       0.00000000
Si      -2.39560740      -0.10138896      -2.86841922       0.00000000
Si       0.31939260      -2.81638896       2.56158078       0.00000000
Si       0.31939260       2.61361104      -2.86841922       0.00000000
Si       0.31939260      -2.81638896      -2.86841922       0.00000000
