10
Lattice="16.28999089631971 0.0 0.0 0.0 16.28999089631971 0.0 0.0 0.0 34.56954931742767" Properties=species:S:1:pos:R:3:initial_magmoms:R:1 pbc="T T T"
Si      -0.14590953       1.19760822      -2.09501957       0.00000000
Si      -0.80643645       1.28746386       1.89057514       0.00000000
Si      -1.72089189      -1.80704970       0.20931874       0.00000000
Si       2.44154520      -0.30975435      -0.51577796       0.00000000
Si       0.20975004       3.25769049       1.04714680       0.00000000
Si      -0.74070630      -0.71423505      -3.50341836       0.00000000
Si      -1.98149931      -2.21433554      -2.15309644       0.00000000
Si      -0.63809559      -3.82688657      -0.51118021       0.00000000
Si      -3.15319014       1.57297869       1.72598942       0.00000000
Si       3.26244717      -2.13124351       0.82389653       0.00000000
