10
Lattice="16.28999089631971 0.0 0.0 0.0 16.28999089631971 0.0 0.0 0.0 34.56954931742767" Properties=species:S:1:pos:R:3:initial_magmoms:R:1 pbc="T T T"
Si       1.08279630      -2.01983687      -0.72049895       0.00000000
Si      -0.26060742      -0.40728584      -2.36241518       0.00000000
Si       1.72089189       1.80704970      -0.20931874       0.00000000
Si      -1.48867794      -0.56227541       2.12627046       0.00000000
Si       0.91445544       3.09451356       1.68125640       0.00000000
Si      -0.03051117      -3.83229485       0.38510499       0.00000000
Si      -0.98684820      -2.87304191       2.37202552       0.00000000
Si      -3.21269425       2.18965293       0.31848944       0.00000000
Si      -1.43229825       3.38002839       1.51667068       0.00000000
Si       0.98018559       1.09281465      -3.71273710       0.00000000
