10
Lattice="16.28999089631971 0.0 0.0 0.0 16.28999089631971 0.0 0.0 0.0 34.56954931742767" Properties=species:S:1:pos:R:3:initial_magmoms:R:1 pbc="T T T"
Si      -0.79698825      -1.58843790       1.56852504       0.00000000
Si      -2.08832913       1.10048724      -0.46516812       0.00000000
Si       1.50338781       1.66658103       0.89462587       0.00000000
Si       1.54535085      -1.10975625      -1.57212027       0.00000000
Si       1.21472901      -2.80995169       1.74804481       0.00000000
Si       0.63364842       3.59062551      -0.18646825       0.00000000
Si       3.59989452       0.58704273       0.68385521       0.00000000
Si      -1.66926888       3.29804082       0.35381953       0.00000000
Si       1.77596838      -3.26933637      -0.45420956       0.00000000
Si       2.94181110      -1.25475354       2.06591199       0.00000000
