10
Lattice="16.28999089631971 0.0 0.0 0.0 16.28999089631971 0.0 0.0 0.0 34.56954931742767" Properties=species:S:1:pos:R:3:initial_magmoms:R:1 pbc="T T T"
Si      -1.36554183      -1.80214804       0.71192570       0.00000000
Si       2.24127594      -0.10021608      -0.79990525       0.00000000
Si       0.26202465       1.45806903       1.90654628       0.00000000
Si      -1.27624005       1.29946959      -1.61643846       0.00000000
Si       2.70923877       2.20449312      -0.60133765       0.00000000
Si      -3.47907159      -0.82603332       0.62653886       0.00000000
Si       2.46281994       2.19638070       1.75544270       0.00000000
Si      -0.75034998       3.56995350      -0.99553444       0.00000000
Si      -3.61406193       0.76266522      -1.20108509       0.00000000
Si      -0.79114014       3.54872763       1.40563323       0.00000000
