10
Lattice="16.28999089631971 0.0 0.0 0.0 16.28999089631971 0.0 0.0 0.0 34.56954931742767" Properties=species:S:1:pos:R:3:initial_magmoms:R:1 pbc="T T T"
Si       1.79325207      -0.95046906      -1.13868702       0.00000000
Si       1.42475598       1.22565406       1.40248537       0.00000000
Si      -1.28101302      -1.46803494       1.33473592       0.00000000
Si      -1.86158862       0.62160131      -1.43415312       0.00000000
Si       0.66311703      -0.49573371      -3.16868123       0.00000000
Si      -2.63829582       2.44264738      -0.00642994       0.00000000
Si      -2.15021484      -3.06263046      -0.27804304       0.00000000
Si       0.06555096       2.59960153       2.76547703       0.00000000
Si       2.21661288       2.25044167      -2.11797376       0.00000000
Si       3.12761484       2.20478080       0.08186327       0.00000000
