10
Lattice="16.28999089631971 0.0 0.0 0.0 16.28999089631971 0.0 0.0 0.0 34.56954931742767" Properties=species:S:1:pos:R:3:initial_magmoms:R:1 pbc="T T T"
Si       1.35767376      -1.35588186      -1.35682100       0.00000000
Si       1.35729909       1.35690813       1.35782352       0.00000000
Si      -1.35816246      -1.35795069       1.35758153       0.00000000
Si      -1.35835794       1.35682668      -1.35875690       0.00000000
Si       2.69578323       0.00873144      -2.72098803       0.00000000
Si       2.71423980      -0.00009774       2.71533591       0.00000000
Si       2.71428867      -2.71573848       0.00114080       0.00000000
Si       2.71627605       2.71402803       0.00103709       0.00000000
Si      -0.00040725       2.71448415       2.71599273       0.00000000
Si      -2.71590138       2.71458189       0.00110623       0.00000000
