10
Lattice="16.28999089631971 0.0 0.0 0.0 16.28999089631971 0.0 0.0 0.0 34.56954931742767" Properties=species:S:1:pos:R:3:initial_magmoms:R:1 pbc="T T T"
Si      -1.35772263       1.35216774      -1.36128047       0.00000000
Si       1.35917244      -1.36306575      -1.36072736       0.00000000
Si       1.35892809       1.35420399       1.37576512       0.00000000
Si      -1.37704257      -1.36603053       1.36425346       0.00000000
Si       2.47611258      -0.14617017       2.85064120       0.00000000
Si      -2.70948312       2.70684414      -0.00235073       0.00000000
Si       0.00153126       2.71029762      -2.71754836       0.00000000
Si       2.71632492       2.71337643      -0.00169391       0.00000000
Si      -2.71062342      -2.71961550      -0.00231616       0.00000000
Si      -2.71314837      -0.00451233      -2.71792863       0.00000000
