10
Lattice="16.28999089631971 0.0 0.0 0.0 16.28999089631971 0.0 0.0 0.0 34.56954931742767" Properties=species:S:1:pos:R:3:initial_magmoms:R:1 pbc="T T T"
Si      -2.34675369       0.28551483      -0.16458572       0.00000000
Si       1.01618649       1.97022663      -0.84342834       0.00000000
Si       0.39900726      -0.35748405       2.33399900       0.00000000
Si       0.80643645      -1.28746386      -1.89057514       0.00000000
Si      -0.78377706       3.39275088      -0.38507043       0.00000000
Si      -2.38674564       2.12823963      -1.68637270       0.00000000
Si      -0.91445544      -3.09451356      -1.68125640       0.00000000
Si       0.81806751       1.84006953       3.15298665       0.00000000
Si      -3.14164053       0.74973096       2.05782271       0.00000000
Si      -1.80309123      -0.85820607       3.28407445       0.00000000
