10
Lattice="16.28999089631971 0.0 0.0 0.0 16.28999089631971 0.0 0.0 0.0 34.56954931742767" Properties=species:S:1:pos:R:3:initial_magmoms:R:1 pbc="T T T"
Si       2.23901163       0.06742431      -0.58581591       0.00000000
Si      -0.46796283      -2.30470920      -0.19856760       0.00000000
Si      -0.24641883      -0.00811242       2.35678034       0.00000000
Si      -1.22782617       1.71111789      -1.09934685       0.00000000
Si       1.29560886      -3.01716864       1.28432861       0.00000000
Si      -2.70923877      -2.20449312       0.60133765       0.00000000
Si      -2.44721412      -0.74642409       2.50788393       0.00000000
Si       3.04518744       2.03126526       0.40159468       0.00000000
Si       2.24981190      -0.15053589      -2.94567294       0.00000000
Si      -3.45958875       1.36546038      -0.39419679       0.00000000
