10
Lattice="16.28999089631971 0.0 0.0 0.0 16.28999089631971 0.0 0.0 0.0 34.56954931742767" Properties=species:S:1:pos:R:3:initial_magmoms:R:1 pbc="T T T"
Si       2.20079529       0.73831167      -0.15110358       0.00000000
Si      -1.05316479       2.09065860      -0.50091305       0.00000000
Si      -0.24751026      -0.91008972       2.20996338       0.00000000
Si      -0.26202465      -1.45806903      -1.90654628       0.00000000
Si       2.44721412       0.74642409      -2.50788393       0.00000000
Si      -2.59335171      -0.60918084       2.42339590       0.00000000
Si       1.97925129      -1.55828511      -2.70645153       0.00000000
Si      -1.01237463       2.11188447      -2.90208072       0.00000000
Si      -1.62756648      -3.26021707      -1.19462058       0.00000000
Si      -1.53826470      -0.15859944      -3.52298474       0.00000000
