10
Lattice="16.28999089631971 0.0 0.0 0.0 16.28999089631971 0.0 0.0 0.0 34.56954931742767" Properties=species:S:1:pos:R:3:initial_magmoms:R:1 pbc="T T T"
Si      -0.78579702      -1.55849688       1.78202669       0.00000000
Si      -1.65050280       1.76311557      -0.92245437       0.00000000
Si       0.43704441       2.63927322      -0.15552849       0.00000000
Si       1.95667335      -1.38680028      -1.44580307       0.00000000
Si      -1.68124203      -0.15364728      -2.67990210       0.00000000
Si       1.17648009      -0.87711876       2.90242641       0.00000000
Si      -2.58576057      -0.13597263       2.24038460       0.00000000
Si      -1.22259708       1.80315639       2.86159975       0.00000000
Si       1.20257667       1.50578244       3.04149979       0.00000000
Si       3.03078708      -1.41747435       1.40469985       0.00000000
