10
Lattice="16.28999089631971 0.0 0.0 0.0 16.28999089631971 0.0 0.0 0.0 34.56954931742767" Properties=species:S:1:pos:R:3:initial_magmoms:R:1 pbc="T T T"
Si       1.79996355      -1.42252425      -0.45835791       0.00000000
Si      -1.60296858      -1.26451125      -1.30130227       0.00000000
Si       0.14825529      -0.02050911       2.43304081       0.00000000
Si       1.36316349       1.93912902       0.62121515       0.00000000
Si       2.58576057       0.13597263      -2.24038460       0.00000000
Si      -1.56297663      -3.10723605       0.22048471       0.00000000
Si       0.78377706      -3.39275088       0.38507043       0.00000000
Si      -2.11320396      -0.34031439       3.12854596       0.00000000
Si       0.93525777       1.89908820      -3.16283897       0.00000000
Si       1.25483499       1.99239732       3.04433449       0.00000000
