10
Lattice="16.28999089631971 0.0 0.0 0.0 16.28999089631971 0.0 0.0 0.0 34.56954931742767" Properties=species:S:1:pos:R:3:initial_magmoms:R:1 pbc="T T T"
Si      -0.03906342       1.18368027       2.01115379       0.00000000
Si       2.32577217      -0.31234446      -0.24084618       0.00000000
Si      -0.54669240       1.38526902      -1.84739775       0.00000000
Si      -0.99136053      -2.20130028      -0.27583059       0.00000000
Si      -1.97164386      -0.26158482      -2.65235015       0.00000000
Si       2.07544374       2.21542371       1.69912887       0.00000000
Si      -0.83041533      -2.34501066      -2.62690695       0.00000000
Si       2.70922248      -2.08858977       1.31132745       0.00000000
Si       2.64557745      -0.31203495      -2.54113985       0.00000000
Si       1.28778966       1.56387258      -3.30460877       0.00000000
