10
Lattice="16.28999089631971 0.0 0.0 0.0 16.28999089631971 0.0 0.0 0.0 34.56954931742767" Properties=species:S:1:pos:R:3:initial_magmoms:R:1 pbc="T T T"
Si      -0.36753498       0.75562794       2.24279656       0.00000000
Si       2.47309893       0.17264142      -0.29404875       0.00000000
Si      -1.39756797       1.95655932      -0.80260168       0.00000000
Si      -0.34893180      -2.25023544      -1.19351436       0.00000000
Si       2.17362357       1.72859706      -2.17107262       0.00000000
Si       0.28745334       3.19112955      -1.96223785       0.00000000
Si      -1.18022679      -1.08229131       3.46595329       0.00000000
Si       1.89871353      -3.17182590      -1.15064809       0.00000000
Si      -2.10496122       2.68855047       1.85683524       0.00000000
Si      -3.20601861       0.93994929      -2.13356464       0.00000000
