10
Lattice="16.28999089631971 0.0 0.0 0.0 16.28999089631971 0.0 0.0 0.0 34.56954931742767" Properties=species:S:1:pos:R:3:initial_magmoms:R:1 pbc="T T T"
Si      -0.40316121      -2.31799207      -0.45790851       0.00000000
Si      -0.44147529       0.31232817       2.34029066       0.00000000
Si      -1.33854930       1.60793703      -1.22625174       0.00000000
Si       2.20209849       0.50072202      -0.95007545       0.00000000
Si      -0.54366246       1.14372090      -3.44866017       0.00000000
Si       2.62115874       2.69827560      -0.13108780       0.00000000
Si       1.54023579      -3.42304865       0.47982561       0.00000000
Si       1.80309123       0.85820607      -3.28407445       0.00000000
Si      -2.77929717      -0.22447620       2.75564402       0.00000000
Si       0.08441478       2.58281208       2.96119468       0.00000000
