10
Lattice="16.28999089631971 0.0 0.0 0.0 16.28999089631971 0.0 0.0 0.0 34.56954931742767" Properties=species:S:1:pos:R:3:initial_magmoms:R:1 pbc="T T T"
Si       1.28101302       1.46803494      -1.33473592       0.00000000
Si       1.33550307      -1.35045729       1.43948375       0.00000000
Si      -1.37551131       1.33841884       1.43241428       0.00000000
Si      -0.86920182      -1.59459552      -1.61277897       0.00000000
Si      -0.58057560       2.08963626      -2.76888905       0.00000000
Si       2.68063353      -2.62495431       0.01996738       0.00000000
Si      -2.63902072      -2.66675445      -0.14696561       0.00000000
Si      -2.73854448       2.56940282      -0.03575876       0.00000000
Si       2.70576900       2.69368901       0.06774944       0.00000000
Si      -2.08945314       0.13799259      -3.21058443       0.00000000
