10
Lattice="16.28999089631971 0.0 0.0 0.0 16.28999089631971 0.0 0.0 0.0 34.56954931742767" Properties=species:S:1:pos:R:3:initial_magmoms:R:1 pbc="T T T"
Si      -1.35726651      -1.35550719      -1.35754696       0.00000000
Si       1.35809730       1.35636370      -1.35689014       0.00000000
Si      -1.35710361       1.35780381       1.35727040       0.00000000
Si       1.35744570      -1.35726651       1.35778895       0.00000000
Si       2.71316466      -0.00021177      -2.71070359       0.00000000
Si       2.71454931      -2.71467963      -0.00003457       0.00000000
Si      -2.71448741       0.00053757       2.71495564       0.00000000
Si      -2.71481972      -2.71464705      -0.00017285       0.00000000
Si       2.71482624      -0.00004887       2.71502478       0.00000000
Si       0.00022806       2.71576847       2.71409140       0.00000000
