10
Lattice="16.28999089631971 0.0 0.0 0.0 16.28999089631971 0.0 0.0 0.0 34.56954931742767" Properties=species:S:1:pos:R:3:initial_magmoms:R:1 pbc="T T T"
Si      -1.35738054      -1.35721764      -1.35723583       0.00000000
Si       1.35790182       1.35770858      -1.35796180       0.00000000
Si       1.36000323      -1.36032903       1.35727040       0.00000000
Si      -1.36041048       1.36024423       1.35951743       0.00000000
Si       2.71547784      -2.71381626      -0.00006914       0.00000000
Si      -0.00027693      -2.71463076      -2.71505935       0.00000000
Si      -2.71482624       0.00004887      -2.71502478       0.00000000
Si      -2.71495656      -2.71510317       0.00003457       0.00000000
Si       0.00014661       2.71517715      -2.71505935       0.00000000
Si       2.71490769       0.00027693      -2.71537048       0.00000000
