10
Lattice="16.28999089631971 0.0 0.0 0.0 16.28999089631971 0.0 0.0 0.0 34.56954931742767" Properties=species:S:1:pos:R:3:initial_magmoms:R:1 pbc="T T T"
Si      -1.26444609       1.42283376       1.37922208       0.00000000
Si       1.34539110       1.34931699      -1.37891095       0.00000000
Si      -1.37104785      -1.36699164      -1.37452062       0.00000000
Si       1.39781232      -1.28018223       1.50602326       0.00000000
Si      -2.50896951      -0.26560845       2.41254106       0.00000000
Si       2.70774009       2.70404226      -0.00197047       0.00000000
Si       2.69218314      -2.72290608       0.00376808       0.00000000
Si       2.70086571      -0.00417024      -2.73625050       0.00000000
Si      -0.01461213       2.70964602      -2.73618136       0.00000000
Si      -2.73217509       2.71484253      -0.00269643       0.00000000
