10
Lattice="16.28999089631971 0.0 0.0 0.0 16.28999089631971 0.0 0.0 0.0 34.56954931742767" Properties=species:S:1:pos:R:3:initial_magmoms:R:1 pbc="T T T"
Si       0.91142550      -0.73388079       2.02197407       0.00000000
Si       1.48879197       0.25378191      -1.79492114       0.00000000
Si      -1.67435136      -1.14539877      -1.19379091       0.00000000
Si      -1.41079545       1.77464972       0.68579110       0.00000000
Si      -1.93241754       0.80884737      -2.57481061       0.00000000
Si       1.33234281       1.33043688       2.95040897       0.00000000
Si      -1.73578095       2.83156594      -1.37144393       0.00000000
Si       2.28996675      -1.99482453      -2.04541224       0.00000000
Si      -3.27120467       0.57666600       1.58968161       0.00000000
Si      -3.44686952      -1.42511436       0.29757485       0.00000000
