10
Lattice="16.28999089631971 0.0 0.0 0.0 16.28999089631971 0.0 0.0 0.0 34.56954931742767" Properties=species:S:1:pos:R:3:initial_magmoms:R:1 pbc="T T T"
Si       0.26357220      -0.18417637      -2.29097617       0.00000000
Si      -0.81212166      -1.91682542       1.21288611       0.00000000
Si       2.00083554       0.81852689       1.09545328       0.00000000
Si      -1.80923256       1.65663761      -0.09985067       0.00000000
Si       0.56956356       2.05522133       2.58268106       0.00000000
Si      -2.18070972      -0.66782217       2.61116985       0.00000000
Si      -0.73940310       3.41486618       1.15322249       0.00000000
Si       0.94587885       2.11396307      -2.88574560       0.00000000
Si      -3.14359533      -1.49861225      -1.32040096       0.00000000
Si      -3.51209142       0.67751087       1.22077142       0.00000000
