10
Lattice="16.28999089631971 0.0 0.0 0.0 16.28999089631971 0.0 0.0 0.0 34.56954931742767" Properties=species:S:1:pos:R:3:initial_magmoms:R:1 pbc="T T T"
Si       1.35764118       1.35635590      -1.35675186       0.00000000
Si      -1.35708732      -1.35836126      -1.35706299       0.00000000
Si      -1.35627282       1.35731701       1.36020882       0.00000000
Si       1.35703845      -1.35794753       1.36076193       0.00000000
Si      -2.71492398       2.71310113       0.00038027       0.00000000
Si       2.71538010       2.71290565      -0.00006914       0.00000000
Si       0.00039096       2.71442062      -2.71391856       0.00000000
Si      -2.71484253      -0.00089269      -2.71416054       0.00000000
Si       2.71480995      -0.00022643      -2.71433339       0.00000000
Si      -0.00008145      -2.71579291      -2.71447167       0.00000000
