10
Lattice="16.28999089631971 0.0 0.0 0.0 16.28999089631971 0.0 0.0 0.0 34.56954931742767" Properties=species:S:1:pos:R:3:initial_magmoms:R:1 pbc="T T T"
Si       0.95900859       1.10580413       1.81431467       0.00000000
Si      -0.32498550       1.05691621      -2.05723503       0.00000000
Si       1.41079545      -1.77464972      -0.68579110       0.00000000
Si      -1.86040922      -1.19798372       0.90389051       0.00000000
Si      -0.52162209      -0.96580235      -3.26060171       0.00000000
Si      -0.26355591      -2.92004849      -1.87958202       0.00000000
Si       2.74313826      -0.44421284       2.26461787       0.00000000
Si       2.32222095      -2.50853051       1.33618297       0.00000000
Si      -2.03607407      -3.19976408      -0.38821626       0.00000000
Si       1.05507072       3.40704356       1.34734894       0.00000000
