10
Lattice="16.28999089631971 0.0 0.0 0.0 16.28999089631971 0.0 0.0 0.0 34.56954931742767" Properties=species:S:1:pos:R:3:initial_magmoms:R:1 pbc="T T T"
Si       0.05812272       0.29590785       2.28134954       0.00000000
Si       2.12092542      -0.71144946      -0.77463489       0.00000000
Si      -1.99642095      -1.40089113       0.02537406       0.00000000
Si       0.41765931       2.15212077      -1.11334753       0.00000000
Si       2.28424896       1.06885206      -2.27989762       0.00000000
Si      -2.03838399       1.37544615       2.49212020       0.00000000
Si      -1.96022457      -2.25187096      -2.26835139       0.00000000
Si       2.19460509       1.14056064       2.94577665       0.00000000
Si       1.93489362      -2.74942783      -1.87951288       0.00000000
Si      -3.54177180      -0.29113488       1.59749434       0.00000000
