10
Lattice="16.28999089631971 0.0 0.0 0.0 16.28999089631971 0.0 0.0 0.0 34.56954931742767" Properties=species:S:1:pos:R:3:initial_magmoms:R:1 pbc="T T T"
Si       0.49769208      -1.11672837      -1.98176966       0.00000000
Si      -0.95153148       2.02256640      -0.79319875       0.00000000
Si       2.24987706       0.38714814       0.69197906       0.00000000
Si      -1.89493425      -1.06202655       1.07694577       0.00000000
Si      -1.95119991       0.34081938       3.03672919       0.00000000
Si       1.15577550       0.72506790      -3.36382645       0.00000000
Si      -3.65850594      -0.34956711      -0.40595044       0.00000000
Si       2.25976509      -2.55207611      -1.43487909       0.00000000
Si      -1.22939001      -2.67192652      -2.29963684       0.00000000
Si      -3.19054311       1.95514209      -0.20738284       0.00000000
