10
Lattice="16.28999089631971 0.0 0.0 0.0 16.28999089631971 0.0 0.0 0.0 34.56954931742767" Properties=species:S:1:pos:R:3:initial_magmoms:R:1 pbc="T T T"
Si      -1.35638685       1.35361755      -1.35896431       0.00000000
Si       1.35742941      -1.35884664      -1.35993226       0.00000000
Si       1.34957763       1.35182565       1.38143453       0.00000000
Si      -1.35739683      -1.35917244       1.37745903       0.00000000
Si      -2.71365336       2.70774009       0.00314583       0.00000000
Si       2.71221984       2.71362078       0.00359524       0.00000000
Si       0.00076563       2.71202436      -2.71561246       0.00000000
Si       2.71340901      -2.71570590       0.00273100       0.00000000
Si      -2.71632492      -2.71337643       0.00169391       0.00000000
Si      -2.71479366      -0.00307881      -2.71585445       0.00000000
