10
Lattice="16.28999089631971 0.0 0.0 0.0 16.28999089631971 0.0 0.0 0.0 34.56954931742767" Properties=species:S:1:pos:R:3:initial_magmoms:R:1 pbc="T T T"
Si      -0.97785612       1.73902266      -1.22894817       0.00000000
Si       0.09625761       1.70834859       1.62155476       0.00000000
Si       1.83964599      -0.72635481      -1.34520562       0.00000000
Si      -1.48853133      -2.00011878       0.43595683       0.00000000
Si      -2.13175827       0.11344356      -2.50778022       0.00000000
Si       1.71025452       0.58238379       2.93063518       0.00000000
Si       0.83279367      -2.40300306      -2.60671832       0.00000000
Si       2.94612795      -2.20460715       0.02585804       0.00000000
Si      -0.69579477      -3.47495022      -1.27274781       0.00000000
Si       0.71144946       2.89483074      -2.53215176       0.00000000
