10
Lattice="16.28999089631971 0.0 0.0 0.0 16.28999089631971 0.0 0.0 0.0 34.56954931742767" Properties=species:S:1:pos:R:3:initial_magmoms:R:1 pbc="T T T"
Si      -2.23901163      -0.06742431       0.58581591       0.00000000
Si       0.80617581       1.96384095       0.98741059       0.00000000
Si       0.01080027      -0.21796020      -2.35985703       0.00000000
Si       0.95153148      -2.02256640       0.79319875       0.00000000
Si       2.10730698      -1.29749850      -2.57062769       0.00000000
Si      -2.70697446      -2.37213351       0.38724831       0.00000000
Si       1.44922356      -3.13929477      -1.18857091       0.00000000
Si      -0.94340277      -3.08459295       1.87014452       0.00000000
Si      -0.24374727       3.74536422      -0.15711869       0.00000000
Si       0.47925180       1.84723713       3.33983517       0.00000000
