10
Lattice="16.28999089631971 0.0 0.0 0.0 16.28999089631971 0.0 0.0 0.0 34.56954931742767" Properties=species:S:1:pos:R:3:initial_magmoms:R:1 pbc="T T T"
Si      -2.25473148       0.09132174       0.50029080       0.00000000
Si       0.48861855       2.06843904       1.04400097       0.00000000
Si       0.32692401       0.11660382      -2.35242458       0.00000000
Si       0.48260754      -2.17137555       0.85919206       0.00000000
Si      -2.96468226      -1.92277386      -0.39723891       0.00000000
Si      -0.74551185       1.84933854       3.12515814       0.00000000
Si       2.80917792       2.13504885       1.18096560       0.00000000
Si       2.62617606       0.40176027      -2.63195411       0.00000000
Si      -2.53457739       0.44028612       2.76425185       0.00000000
Si      -3.21196446       1.95572853      -0.54315706       0.00000000
