10
Lattice="16.28999089631971 0.0 0.0 0.0 16.28999089631971 0.0 0.0 0.0 34.56954931742767" Properties=species:S:1:pos:R:3:initial_magmoms:R:1 pbc="T T T"
Si       1.70033391       1.25156070      -1.15118738       0.00000000
Si       1.50014610      -1.17724572       1.49890884       0.00000000
Si      -1.20614418       1.52520012       1.47703667       0.00000000
Si      -0.57115998      -1.93808646      -1.56533569       0.00000000
Si       0.10989234       2.68310961      -2.41260125       0.00000000
Si      -2.51579502      -2.67125049      -0.14964821       0.00000000
Si       2.94223464      -2.41092000       0.11835238       0.00000000
Si       0.16203663      -2.54185902       2.86307587       0.00000000
Si      -2.55399507       0.17084952       2.86113998       0.00000000
Si       3.58705800      -0.56049003      -1.50743166       0.00000000
