10
Lattice="16.28999089631971 0.0 0.0 0.0 16.28999089631971 0.0 0.0 0.0 34.56954931742767" Properties=species:S:1:pos:R:3:initial_magmoms:R:1 pbc="T T T"
Si      -1.36858806       1.24900325       1.39828374       0.00000000
Si       0.81212166       1.91682542      -1.21288611       0.00000000
Si       1.36586763      -1.44827874       1.36903097       0.00000000
Si      -1.36599795      -1.43280324      -1.45202010       0.00000000
Si      -2.33147367       0.41821317      -2.53328707       0.00000000
Si      -2.69996976       2.59433630       0.00788532       0.00000000
Si       0.00721647       2.60664991       2.73799972       0.00000000
Si      -2.72510523      -2.72430702      -0.03989674       0.00000000
Si      -2.70977634      -0.10831221       2.74501734       0.00000000
Si       2.72266173      -0.10902897       2.73817256       0.00000000
