10
Lattice="16.28999089631971 0.0 0.0 0.0 16.28999089631971 0.0 0.0 0.0 34.56954931742767" Properties=species:S:1:pos:R:3:initial_magmoms:R:1 pbc="T T T"
Si      -1.35718506      -1.35648459       1.35754696       0.00000000
Si       1.35769005       1.35728280       1.35792723       0.00000000
Si       1.35760860      -1.35785295      -1.35758153       0.00000000
Si      -1.35775521       1.35760860      -1.35775438       0.00000000
Si      -2.71265967      -0.00299736       2.71488650       0.00000000
Si       2.71489140      -2.71479366      -0.00020742       0.00000000
Si      -2.71467963      -2.71502172       0.00051854       0.00000000
Si      -2.71476108       2.71504025      -0.00034570       0.00000000
Si       2.71484253       2.71503110       0.00013828       0.00000000
Si       0.00200367      -2.71547784      -2.71443710       0.00000000
