10
Lattice="16.28999089631971 0.0 0.0 0.0 16.28999089631971 0.0 0.0 0.0 34.56954931742767" Properties=species:S:1:pos:R:3:initial_magmoms:R:1 pbc="T T T"
Si      -1.35547461       1.35348723       1.35733954       0.00000000
Si       1.35718506       1.35648459      -1.35754696       0.00000000
Si      -1.35749457      -1.35853713      -1.35702842       0.00000000
Si       1.35395964      -1.35694071       1.36217928       0.00000000
Si       2.71487511       2.71376739       0.00038027       0.00000000
Si      -2.71547784       2.71381626       0.00006914       0.00000000
Si      -0.00057015       2.71409319      -2.71530134       0.00000000
Si       2.71479366      -0.00136836      -2.71512849       0.00000000
Si      -2.71575477      -0.00081450      -2.71499021       0.00000000
Si       2.71635750      -2.71467963      -0.00055311       0.00000000
