10
Lattice="16.28999089631971 0.0 0.0 0.0 16.28999089631971 0.0 0.0 0.0 34.56954931742767" Properties=species:S:1:pos:R:3:initial_magmoms:R:1 pbc="T T T"
Si       1.25701785      -1.75751181      -0.92867689       0.00000000
Si       1.25758800       0.07338645       2.01070439       0.00000000
Si       0.64340613       2.16828045      -0.79755452       0.00000000
Si      -2.36040471      -0.32208588       0.28692742       0.00000000
Si      -2.23479252      -0.28704609       2.66310129       0.00000000
Si       3.30621840       0.69010956       1.12817787       0.00000000
Si       3.45090618      -0.86925069      -0.65751320       0.00000000
Si      -1.49784921       3.28092868      -0.81349109       0.00000000
Si      -3.26954961       1.57835439      -0.86313299       0.00000000
Si       0.60114987       1.94035077       3.28507697       0.00000000
