10
Lattice="16.28999089631971 0.0 0.0 0.0 16.28999089631971 0.0 0.0 0.0 34.56954931742767" Properties=species:S:1:pos:R:3:initial_magmoms:R:1 pbc="T T T"
Si      -1.33688772      -1.34974053      -1.37117774       0.00000000
Si      -1.35400851       1.35747828       1.35782352       0.00000000
Si       1.36122498      -1.35630540       1.35771981       0.00000000
Si       1.37324700       1.36228383      -1.37664665       0.00000000
Si      -2.71130760       0.00055386       2.71495564       0.00000000
Si      -2.71135647      -2.71513738      -0.00297298       0.00000000
Si      -2.71062342       2.71733490      -0.00013828       0.00000000
Si       0.00311139      -2.71409319       2.71454081       0.00000000
Si       0.00304623       2.71551042       2.71474823       0.00000000
Si       2.71863810      -2.71338783      -0.00515087       0.00000000
