10
Lattice="16.28999089631971 0.0 0.0 0.0 16.28999089631971 0.0 0.0 0.0 34.56954931742767" Properties=species:S:1:pos:R:3:initial_magmoms:R:1 pbc="T T T"
Si      -1.44208854       1.23367428       1.38055647       0.00000000
Si      -1.41916851      -1.32817257      -1.38286368       0.00000000
Si       1.30367241      -1.48599009       1.36821513       0.00000000
Si       0.64482336       1.85042997      -1.62578404       0.00000000
Si       2.50945821       2.61358389      -0.13828865       0.00000000
Si      -0.06823881       2.58416415       2.74710880       0.00000000
Si       0.18433764      -2.50900209      -2.81587601       0.00000000
Si      -2.94223464       2.41092000      -0.11835238       0.00000000
Si       2.64935673      -0.13388751       2.74309873       0.00000000
Si       2.70168021      -2.77055433      -0.12678044       0.00000000
