10
Lattice="16.28999089631971 0.0 0.0 0.0 16.28999089631971 0.0 0.0 0.0 34.56954931742767" Properties=species:S:1:pos:R:3:initial_magmoms:R:1 pbc="T T T"
Si       1.35625653      -1.35676152       1.35955200       0.00000000
Si      -1.34568432      -1.35210258      -1.37488360       0.00000000
Si      -1.35894438       1.35830907       1.35927544       0.00000000
Si       1.35066993       1.35685926      -1.39680762       0.00000000
Si      -2.64935673       0.13388751      -2.74309873       0.00000000
Si       2.71406128      -2.71560816      -0.00138278       0.00000000
Si      -0.00029322      -2.71404432       2.71651127       0.00000000
Si       2.71445061       0.00050499       2.71651127       0.00000000
Si       2.71189145       2.71932228      -0.00200503       0.00000000
Si      -2.71588509       0.00112401       2.71651127       0.00000000
