10
Lattice="16.28999089631971 0.0 0.0 0.0 16.28999089631971 0.0 0.0 0.0 34.56954931742767" Properties=species:S:1:pos:R:3:initial_magmoms:R:1 pbc="T T T"
Si       0.25541091      -0.34241580       2.30475314       0.00000000
Si       1.24047928      -1.86940782      -0.77269900       0.00000000
Si      -2.33956980      -0.16478964      -0.43944836       0.00000000
Si       0.49778982       2.22817878      -0.74971024       0.00000000
Si      -0.68134554      -2.56841172      -2.04696787       0.00000000
Si      -2.24340993      -0.81300132      -2.66496805       0.00000000
Si      -0.43104969       3.43005498       1.13526463       0.00000000
Si       1.96830671       1.12114296       2.86146147       0.00000000
Si      -1.79510913       0.21879099       3.25171733       0.00000000
Si      -2.31058989       2.24738469       2.03984654       0.00000000
