10
Lattice="16.28999089631971 0.0 0.0 0.0 16.28999089631971 0.0 0.0 0.0 34.56954931742767" Properties=species:S:1:pos:R:3:initial_magmoms:R:1 pbc="T T T"
Si       1.71289580       1.46355876       0.55670833       0.00000000
Si      -2.05052004       0.56120679       0.94696419       0.00000000
Si      -0.25541091       0.34241580      -2.30475314       0.00000000
Si       0.59317984      -2.11615245       0.82870170       0.00000000
Si       1.12005872      -3.11569056      -1.24982818       0.00000000
Si       0.98506837      -1.52699202      -3.07745214       0.00000000
Si       2.26780325      -1.44076905       2.45357513       0.00000000
Si       2.20168214       0.87544089       2.77821795       0.00000000
Si      -2.56600080       2.58980049      -0.26490660       0.00000000
Si       0.86967816       3.62770155       0.54405587       0.00000000
