10
Lattice="16.28999089631971 0.0 0.0 0.0 16.28999089631971 0.0 0.0 0.0 34.56954931742767" Properties=species:S:1:pos:R:3:initial_magmoms:R:1 pbc="T T T"
Si      -0.37504467       2.36074680       0.17830984       0.00000000
Si      -0.02314809      -0.29336661      -2.38706328       0.00000000
Si       2.23054083       0.73446723       0.61447408       0.00000000
Si      -1.52681283      -1.65939714       1.56690027       0.00000000
Si       1.92062358       2.83638222      -0.57658584       0.00000000
Si       2.42458146      -0.59623029       2.73428003       0.00000000
Si      -1.60282197      -2.04247278      -2.66054314       0.00000000
Si      -1.42680852       3.10997277      -1.87674731       0.00000000
Si       2.02737195      -0.85457340      -3.33402748       0.00000000
Si      -1.06632711       2.70003492       2.75699224       0.00000000
