10
Lattice="16.28999089631971 0.0 0.0 0.0 16.28999089631971 0.0 0.0 0.0 34.56954931742767" Properties=species:S:1:pos:R:3:initial_magmoms:R:1 pbc="T T T"
Si      -1.35694071      -1.35718506       1.35723583       0.00000000
Si       1.35811359       1.35799956       1.35682100       0.00000000
Si      -1.35865116       1.35974259      -1.35526537       0.00000000
Si       1.35894438      -1.35830907      -1.35927544       0.00000000
Si       0.00847080       2.70578529      -2.70098262       0.00000000
Si      -2.71200807       2.71454931       0.00020742       0.00000000
Si      -2.71404432       0.00042354       2.71450624       0.00000000
Si       0.00100998      -2.71467963       2.71447167       0.00000000
Si      -2.71399545      -2.71521720       0.00031113       0.00000000
Si       0.00087966       2.71523349       2.71443710       0.00000000
