10
Lattice="16.28999089631971 0.0 0.0 0.0 16.28999089631971 0.0 0.0 0.0 34.56954931742767" Properties=species:S:1:pos:R:3:initial_magmoms:R:1 pbc="T T T"
Si      -0.76438137      -1.70966808      -1.56496437       0.00000000
Si       1.76679222       0.80653419      -1.53589136       0.00000000
Si       0.31361345      -0.67973283       2.44849341       0.00000000
Si      -1.71604954       1.94382054      -0.09230075       0.00000000
Si      -0.36087237       2.74369212       2.12063562       0.00000000
Si      -1.26677134       0.86315823       3.21656008       0.00000000
Si      -2.39874715      -2.86148511      -0.14529590       0.00000000
Si      -2.22131647      -0.47003166      -3.01277248       0.00000000
Si       2.05401750       2.35336743       2.12488768       0.00000000
Si       0.49735813       2.23959807      -3.01685169       0.00000000
