10
Lattice="16.28999089631971 0.0 0.0 0.0 16.28999089631971 0.0 0.0 0.0 34.56954931742767" Properties=species:S:1:pos:R:3:initial_magmoms:R:1 pbc="T T T"
Si      -1.34918667      -1.35065277      -1.37172048       0.00000000
Si       1.36889757       1.36490652      -1.37085624       0.00000000
Si       1.35249354      -1.36029645       1.40663575       0.00000000
Si      -1.43226567       1.21849200       1.45731474       0.00000000
Si       0.00558747       2.34538533       2.90142390       0.00000000
Si      -2.70542691      -2.70073539       0.00304212       0.00000000
Si      -2.69260668       2.72305269       0.00978319       0.00000000
Si       2.70775053       2.72147256      -0.01566001       0.00000000
Si      -2.70356985       0.00638568      -2.73047738       0.00000000
Si       2.72343129      -2.71091664       0.00297298       0.00000000
