10
Lattice="16.28999089631971 0.0 0.0 0.0 16.28999089631971 0.0 0.0 0.0 34.56954931742767" Properties=species:S:1:pos:R:3:initial_magmoms:R:1 pbc="T T T"
Si      -0.14468778       1.55936025       1.78569107       0.00000000
Si      -2.19388833      -0.88826112      -0.27116370       0.00000000
Si       1.42265457      -1.83000231       0.59190015       0.00000000
Si       0.73493964       1.67743017      -1.57412531       0.00000000
Si       2.73391553      -0.50352390       2.01395393       0.00000000
Si      -2.02673664      -1.31922936      -2.53284315       0.00000000
Si      -2.19331818       0.94263714       2.66821759       0.00000000
Si      -3.45090618       0.86925069       0.65751320       0.00000000
Si      -1.41353217       2.91633354      -2.03106587       0.00000000
Si       1.70375481       1.23157287       3.21168577       0.00000000
