10
Lattice="16.28999089631971 0.0 0.0 0.0 16.28999089631971 0.0 0.0 0.0 34.56954931742767" Properties=species:S:1:pos:R:3:initial_magmoms:R:1 pbc="T T T"
Si       1.56719574       1.13736780       1.37624910       0.00000000
Si      -1.26943409       1.43306388      -1.48096032       0.00000000
Si       1.42557048      -1.28492262      -1.48932616       0.00000000
Si      -1.76679222      -0.80653419       1.53589136       0.00000000
Si      -2.53117359      -2.51620227      -0.02907301       0.00000000
Si       3.33449784      -0.67126203       1.36155703       0.00000000
Si       2.73970107      -2.58310530      -0.04684177       0.00000000
Si      -2.64037184       2.78368407      -0.07729756       0.00000000
Si      -2.62688399       0.07757298      -2.85548094       0.00000000
Si       0.09198963      -2.63850759      -2.85589577       0.00000000
