10
Lattice="16.28999089631971 0.0 0.0 0.0 16.28999089631971 0.0 0.0 0.0 34.56954931742767" Properties=species:S:1:pos:R:3:initial_magmoms:R:1 pbc="T T T"
Si       1.83987309       0.92465298       1.35003987       0.00000000
Si      -1.83883149       1.67120739       0.20793596       0.00000000
Si      -1.10775258      -1.81558566       1.41469188       0.00000000
Si       0.58960093      -0.33449886      -2.50491094       0.00000000
Si      -3.12618132       0.46705059      -1.82620660       0.00000000
Si      -1.30645800       0.81243117      -3.34712934       0.00000000
Si       0.40777128       2.23459704       2.90435336       0.00000000
Si      -2.31832764      -0.49896270       2.95437207       0.00000000
Si      -0.85377519       3.58608060       1.35148834       0.00000000
Si      -2.97238743      -2.57873958      -0.07280351       0.00000000
