10
Lattice="16.28999089631971 0.0 0.0 0.0 16.28999089631971 0.0 0.0 0.0 34.56954931742767" Properties=species:S:1:pos:R:3:initial_magmoms:R:1 pbc="T T T"
Si       1.35693347      -1.35755973       1.35747782       0.00000000
Si      -1.35749457      -1.35695700      -1.35768524       0.00000000
Si      -1.35832536       1.35765056       1.35768524       0.00000000
Si       1.35842917       1.35835380      -1.35765067       0.00000000
Si      -0.00052128      -2.71376739       2.71464452       0.00000000
Si      -0.00197109       2.71475686       2.71429882       0.00000000
Si       2.71451414      -2.71464705      -0.00003457       0.00000000
Si       2.71424210       2.71525534      -0.00003457       0.00000000
Si       2.71434961      -0.00278559      -2.71526677       0.00000000
Si       2.71484646       0.00053757       2.71509392       0.00000000
