10
Lattice="16.28999089631971 0.0 0.0 0.0 16.28999089631971 0.0 0.0 0.0 34.56954931742767" Properties=species:S:1:pos:R:3:initial_magmoms:R:1 pbc="T T T"
Si      -1.35627282       1.35803214      -1.35865319       0.00000000
Si       1.35868374      -1.35563751      -1.35948286       0.00000000
Si      -1.34382726      -1.35374787       1.38067400       0.00000000
Si       1.35902583       1.35648459       1.38623970       0.00000000
Si       2.71767699      -2.71189404       0.00003457       0.00000000
Si      -2.71718829      -2.71267596       0.00314583       0.00000000
Si      -2.71396287       0.00074934      -2.71658041       0.00000000
Si       2.71441746       2.71623772       0.00266186       0.00000000
Si      -2.71459818       2.71620331       0.00089881       0.00000000
Si       0.00092853      -2.71404432      -2.71678783       0.00000000
