10
Lattice="16.28999089631971 0.0 0.0 0.0 16.28999089631971 0.0 0.0 0.0 34.56954931742767" Properties=species:S:1:pos:R:3:initial_magmoms:R:1 pbc="T T T"
Si       0.60185034      -0.70710003      -2.10400766       0.00000000
Si      -0.73493964      -1.67743017       1.57412531       0.00000000
Si      -2.14847181       1.23890337      -0.45694056       0.00000000
Si       2.21692306       0.85064751       0.86275272       0.00000000
Si      -0.87962742      -0.11806992       3.35981638       0.00000000
Si      -1.58788404      -1.55398455      -2.71765207       0.00000000
Si       1.54297807       1.26109035      -2.90387834       0.00000000
Si      -1.61759700       2.07498762       2.70928623       0.00000000
Si       3.21065216      -0.91370610       2.01516386       0.00000000
Si       2.63442110      -1.97434800      -2.13142132       0.00000000
