10
Lattice="16.28999089631971 0.0 0.0 0.0 16.28999089631971 0.0 0.0 0.0 34.56954931742767" Properties=species:S:1:pos:R:3:initial_magmoms:R:1 pbc="T T T"
Si       0.16547382       2.04488926      -1.14770968       0.00000000
Si      -1.39396788       0.12119760       1.89102454       0.00000000
Si       2.14847181      -1.23890337       0.45694056       0.00000000
Si      -1.14046290      -1.03632093      -2.14645909       0.00000000
Si       0.53087481       0.83608425       3.16622679       0.00000000
Si       0.56058777      -2.79288792      -2.26071151       0.00000000
Si       2.25310248       1.85551149      -2.32922840       0.00000000
Si       2.75032215      -1.94600340      -1.64706710       0.00000000
Si       1.41353217      -2.91633354       2.03106587       0.00000000
Si      -2.03737401      -2.04708285       2.68857906       0.00000000
