10
Lattice="16.28999089631971 0.0 0.0 0.0 16.28999089631971 0.0 0.0 0.0 34.56954931742767" Properties=species:S:1:pos:R:3:initial_magmoms:R:1 pbc="T T T"
Si       2.23651667      -0.64189116       0.22045014       0.00000000
Si      -0.47913777       2.24454113       0.48577158       0.00000000
Si      -0.77820588      -0.76515759      -2.10269401       0.00000000
Si      -1.05138918      -1.25152812       2.03023620       0.00000000
Si       2.06085183      -2.64367152      -1.07165663       0.00000000
Si       0.15135039       0.91642068      -3.52931097       0.00000000
Si       0.04408074       2.29494239       3.00430293       0.00000000
Si      -2.85338898       2.49193736       0.26864012       0.00000000
Si       1.13153176       3.58866161      -0.74753235       0.00000000
Si      -3.13079139      -1.06790724      -2.04427144       0.00000000
