10
Lattice="16.28999089631971 0.0 0.0 0.0 16.28999089631971 0.0 0.0 0.0 34.56954931742767" Properties=species:S:1:pos:R:3:initial_magmoms:R:1 pbc="T T T"
Si       0.98505630       1.91487321       1.14355238       0.00000000
Si      -1.82260665      -0.86024232       1.41871923       0.00000000
Si       1.83883149      -1.67120739      -0.20793596       0.00000000
Si      -1.28734983      -1.20415680      -2.03414256       0.00000000
Si       0.37040202       1.52909343      -2.76528893       0.00000000
Si      -0.47949615      -2.17017009       2.74643611       0.00000000
Si       2.24660277       0.56338965       2.69641741       0.00000000
Si       0.53237349      -0.85877622      -3.55506530       0.00000000
Si       0.73107891      -3.48679305       1.20675592       0.00000000
Si      -3.02028003      -2.43789624       0.07550482       0.00000000
