10
Lattice="16.28999089631971 0.0 0.0 0.0 16.28999089631971 0.0 0.0 0.0 34.56954931742767" Properties=species:S:1:pos:R:3:initial_magmoms:R:1 pbc="T T T"
Si       2.23176258       0.34565751      -0.70515006       0.00000000
Si      -1.40678811       1.58759082      -1.07110351       0.00000000
Si      -0.04079016      -0.02122587       2.40116767       0.00000000
Si      -0.52589007      -2.27048391      -0.62090402       0.00000000
Si       1.01237463      -2.11188447       2.90208072       0.00000000
Si       3.45958875      -1.36546038       0.39419679       0.00000000
Si       0.75034998      -3.56995350       0.99553444       0.00000000
Si      -3.60640142       1.29029832      -0.18256189       0.00000000
Si      -1.17830457       1.32783048      -3.50179359       0.00000000
Si       3.12683292       2.36121921       0.25398262       0.00000000
