10
Lattice="16.28999089631971 0.0 0.0 0.0 16.28999089631971 0.0 0.0 0.0 34.56954931742767" Properties=species:S:1:pos:R:3:initial_magmoms:R:1 pbc="T T T"
Si      -1.43073441       1.31437494       1.29463035       0.00000000
Si      -1.35581670      -1.34851878      -1.36504856       0.00000000
Si       1.35633798       1.36575360      -1.36124590       0.00000000
Si       1.34576577      -1.34280099       1.53267640       0.00000000
Si       0.21841632       2.46713679       2.42581577       0.00000000
Si       1.37650500       0.57396186       3.29012413       0.00000000
Si      -2.45244973      -0.26559216       2.70413537       0.00000000
Si       2.71259451      -2.70115893       0.01306730       0.00000000
Si      -2.71838072      -2.70340695       0.00992147       0.00000000
Si      -0.00405621      -2.70319518      -2.72397830       0.00000000
