10
Lattice="16.28999089631971 0.0 0.0 0.0 16.28999089631971 0.0 0.0 0.0 34.56954931742767" Properties=species:S:1:pos:R:3:initial_magmoms:R:1 pbc="T T T"
Si       1.35581293       1.35690154       1.35761610       0.00000000
Si      -1.35842917      -1.35835380       1.35765067       0.00000000
Si       1.35592045      -1.36113939      -1.35761610       0.00000000
Si      -1.35893416       1.35814610      -1.36211014       0.00000000
Si       2.71363819      -2.71386099       0.00024199       0.00000000
Si       2.71323094       2.71485386       0.00017285       0.00000000
Si       2.71380109      -0.00054998       2.71505935       0.00000000
Si      -0.00146356       2.71433258       2.71519763       0.00000000
Si      -0.00149570      -2.71591353       2.71512849       0.00000000
Si      -2.71592374      -2.71531080      -0.00003457       0.00000000
