10
Lattice="16.28999089631971 0.0 0.0 0.0 16.28999089631971 0.0 0.0 0.0 34.56954931742767" Properties=species:S:1:pos:R:3:initial_magmoms:R:1 pbc="T T T"
Si      -1.35699431      -1.35580041      -1.35657901       0.00000000
Si       1.35846708       1.35925389      -1.35630246       0.00000000
Si      -1.35501427       1.36155078       1.36010511       0.00000000
Si       1.36208346      -1.35938421       1.35896431       0.00000000
Si      -2.71329076      -2.71376739       0.00082967       0.00000000
Si       0.00075260      -2.71363707      -2.71391856       0.00000000
Si       2.71384395      -2.71406061       0.00003457       0.00000000
Si      -2.71452880       0.00216657      -2.71433339       0.00000000
Si       2.71573359       0.00215028      -2.71391856       0.00000000
Si       0.00102790       2.71692765      -2.71409140       0.00000000
