10
Lattice="16.28999089631971 0.0 0.0 0.0 16.28999089631971 0.0 0.0 0.0 34.56954931742767" Properties=species:S:1:pos:R:3:initial_magmoms:R:1 pbc="T T T"
Si      -1.35511623       1.26359901       1.43792121       0.00000000
Si      -1.63686874      -1.08719460      -1.29055114       0.00000000
Si       1.02171532       1.57996710      -1.40950502       0.00000000
Si      -1.12416150      -1.93372074       2.44327340       0.00000000
Si       1.29072838      -2.32404543       2.44752546       0.00000000
Si      -0.26593099      -2.43781479      -2.69421390       0.00000000
Si       2.45244973       0.26559216      -2.70413537       0.00000000
Si      -2.47933867      -2.73359232       0.23033704       0.00000000
Si       2.57069884      -2.73351087       0.16299552       0.00000000
Si       2.67086605       2.73272895      -0.27831960       0.00000000
