10
Lattice="16.28999089631971 0.0 0.0 0.0 16.28999089631971 0.0 0.0 0.0 34.56954931742767" Properties=species:S:1:pos:R:3:initial_magmoms:R:1 pbc="T T T"
Si       1.35624045       1.35676152       1.35737411       0.00000000
Si       1.35727649      -1.35743104      -1.35758153       0.00000000
Si      -1.35747060       1.35754344      -1.35740868       0.00000000
Si      -1.35893670      -1.35792951       1.35675186       0.00000000
Si      -0.00092085       2.71482624      -2.71436796       0.00000000
Si      -2.71488372       0.00089595      -2.71443710       0.00000000
Si       0.00146356      -2.71433258      -2.71519763       0.00000000
Si       2.71469450       0.00052128      -2.71502478       0.00000000
Si       2.71493885       2.71498914      -0.00010371       0.00000000
Si       2.71526465      -2.71488256      -0.00013828       0.00000000
