10
Lattice="16.28999089631971 0.0 0.0 0.0 16.28999089631971 0.0 0.0 0.0 34.56954931742767" Properties=species:S:1:pos:R:3:initial_magmoms:R:1 pbc="T T T"
Si       1.35771774      -1.35272160       1.35785809       0.00000000
Si       1.35667518       1.34995216      -1.36776572       0.00000000
Si      -1.35592045       1.36113939       1.35761610       0.00000000
Si      -1.33893604      -1.34527707      -1.39283212       0.00000000
Si      -0.00635799       2.58093614      -2.83593876       0.00000000
Si       2.71386024      -2.71230129      -0.00404464       0.00000000
Si       0.00016453      -2.71186146       2.71523220       0.00000000
Si      -2.71433332      -2.71309950      -0.00304212       0.00000000
Si      -2.71434961       0.00278559       2.71526677       0.00000000
Si       2.71498425       0.00278559       2.71540505       0.00000000
