10
Lattice="16.28999089631971 0.0 0.0 0.0 16.28999089631971 0.0 0.0 0.0 34.56954931742767" Properties=species:S:1:pos:R:3:initial_magmoms:R:1 pbc="T T T"
Si       1.98213462      -0.20232180       1.19811211       0.00000000
Si      -0.86153642      -2.17802187       0.16137075       0.00000000
Si       0.34968603       0.92458035      -2.17726057       0.00000000
Si      -1.44181880       1.12380867       1.61284322       0.00000000
Si      -2.70997901      -1.85023449      -1.26462396       0.00000000
Si      -1.73603249       1.96953009      -2.34969358       0.00000000
Si       0.06524145       2.79651149       2.31609196       0.00000000
Si       2.17877121       1.82039677       2.40147879       0.00000000
Si      -1.34873774      -2.59812468       2.44507102       0.00000000
Si       0.38657147      -0.88151706      -3.76168761       0.00000000
