10
Lattice="16.28999089631971 0.0 0.0 0.0 16.28999089631971 0.0 0.0 0.0 34.31052061344573" Properties=species:S:1:pos:R:3:initial_magmoms:R:1 pbc="T T T"
Si      -1.35690813       1.35414046       1.35420269       0.00000000
Si       1.35728280       1.35643735      -1.35787392       0.00000000
Si      -1.35754344      -1.35846553      -1.35763375       0.00000000
Si       1.36083402      -1.36007395       1.35413407       0.00000000
Si      -2.70118336       0.00186521       2.71814958       0.00000000
Si       2.71200807       2.71329661       0.00017155       0.00000000
Si      -2.71620600       2.71181422       0.00133811       0.00000000
Si       2.71261080      -2.71551598      -0.00099501       0.00000000
Si      -2.71353607      -2.71504357      -0.00072052       0.00000000
Si       2.71480995      -0.00109958      -2.71482146       0.00000000
