10
Lattice="16.28999089631971 0.0 0.0 0.0 16.28999089631971 0.0 0.0 0.0 34.31052061344573" Properties=species:S:1:pos:R:3:initial_magmoms:R:1 pbc="T T T"
Si       1.25788122      -1.86393438       0.59244009       0.00000000
Si      -1.80191835       0.56153259       1.37780835       0.00000000
Si       1.33397181       1.91813121      -0.07778199       0.00000000
Si       0.17176176      -0.49337523      -2.34124830       0.00000000
Si       1.75112613      -2.14533599      -1.66941362       0.00000000
Si       0.18290412       2.73678516      -1.97251293       0.00000000
Si      -1.50469101       2.85772212       1.68495630       0.00000000
Si      -3.72829719       0.07226244       0.14619721       0.00000000
Si      -0.17616006      -3.62220840       1.17496444       0.00000000
Si       3.30221106      -1.27638666       1.63095151       0.00000000
