10
Lattice="16.28999089631971 0.0 0.0 0.0 16.28999089631971 0.0 0.0 0.0 34.31052061344573" Properties=species:S:1:pos:R:3:initial_magmoms:R:1 pbc="T T T"
Si      -1.85347620       1.42009704       0.12790969       0.00000000
Si       1.73444517       0.92981691      -1.28057228       0.00000000
Si      -0.10709046      -0.16791732       2.35531562       0.00000000
Si      -0.55521207      -2.27976595      -0.30261896       0.00000000
Si      -3.10941891       0.33225084      -1.52596126       0.00000000
Si      -2.41943967       0.44292510       2.49688091       0.00000000
Si      -2.39606352      -1.92086304      -1.71521819       0.00000000
Si       3.41541027       1.13990904       0.72038409       0.00000000
Si       0.59855976      -2.41686911       2.77905079       0.00000000
Si       2.01451914      -0.29406708      -3.28386176       0.00000000
