10
Lattice="16.28999089631971 0.0 0.0 0.0 16.28999089631971 0.0 0.0 0.0 34.31052061344573" Properties=species:S:1:pos:R:3:initial_magmoms:R:1 pbc="T T T"
Si       1.32146109       1.18257255       1.55662943       0.00000000
Si      -1.22989500      -1.43231617       1.48400774       0.00000000
Si      -1.20511791       1.63745451      -1.31519161       0.00000000
Si       1.43506755      -1.48993716      -1.33286154       0.00000000
Si       2.28581280       0.58477842      -2.04178591       0.00000000
Si      -2.63940354      -0.08739585      -2.31132951       0.00000000
Si      -1.93375332      -2.33634764      -1.88759435       0.00000000
Si      -2.58173694       0.00902466       2.90204520       0.00000000
Si       2.78479179      -2.73421853       0.16997441       0.00000000
Si      -2.04931458      -3.39562511       0.20377030       0.00000000
