10
Lattice="16.28999089631971 0.0 0.0 0.0 16.28999089631971 0.0 0.0 0.0 34.31052061344573" Properties=species:S:1:pos:R:3:initial_magmoms:R:1 pbc="T T T"
Si      -1.42662933       1.21034700       1.46887881       0.00000000
Si      -1.66330674      -1.26903987      -1.19412721       0.00000000
Si       1.28140398      -1.49279931       1.43485305       0.00000000
Si       0.88940142       1.70481366      -1.84636135       0.00000000
Si       0.79698825      -0.40019643      -3.31059795       0.00000000
Si       2.51237412       2.57119731      -0.05723341       0.00000000
Si      -1.11125493       3.17731563      -1.37380229       0.00000000
Si      -2.83348260       2.34593919      -0.00748656       0.00000000
Si      -0.05401764      -2.60814303      -2.76883452       0.00000000
Si      -0.08255772       2.57722461       2.82472498       0.00000000
