10
Lattice="16.28999089631971 0.0 0.0 0.0 16.28999089631971 0.0 0.0 0.0 34.31052061344573" Properties=species:S:1:pos:R:3:initial_magmoms:R:1 pbc="T T T"
Si      -1.35676152       1.35786924       1.35739358       0.00000000
Si       1.35790182      -1.35767376       1.35753082       0.00000000
Si      -1.35951453      -1.35852084      -1.35571236       0.00000000
Si       1.35754344       1.35785295      -1.35993256       0.00000000
Si      -2.71407690      -0.00045612      -2.71482146       0.00000000
Si      -0.00169416      -2.71002069      -2.71887010       0.00000000
Si      -2.71495656      -2.71415835       0.00024017       0.00000000
Si      -2.71425609       2.71531494      -0.00034311       0.00000000
Si       0.00096111       2.71490769       2.71502732       0.00000000
Si       2.71560816      -2.71453302      -0.00010293       0.00000000
