10
Lattice="16.28999089631971 0.0 0.0 0.0 16.28999089631971 0.0 0.0 0.0 34.31052061344573" Properties=species:S:1:pos:R:3:initial_magmoms:R:1 pbc="T T T"
Si      -1.34407161      -1.36687761      -1.35584617       0.00000000
Si      -1.35438318       1.35516510       1.35924634       0.00000000
Si       1.36091547      -1.35928647       1.35591822       0.00000000
Si       1.35205371       1.36391283      -1.38056005       0.00000000
Si       0.08255772      -2.57722461      -2.82472498       0.00000000
Si      -2.70656721       2.71262709      -0.00003431       0.00000000
Si      -2.71088406      -0.00182448       2.71550767       0.00000000
Si      -2.71070487      -2.71759554       0.00102932       0.00000000
Si       0.00345348       2.71298547       2.71571353       0.00000000
Si       2.72046258       2.71011843      -0.00082345       0.00000000
