10
Lattice="16.28999089631971 0.0 0.0 0.0 16.28999089631971 0.0 0.0 0.0 34.31052061344573" Properties=species:S:1:pos:R:3:initial_magmoms:R:1 pbc="T T T"
Si       1.35676152      -1.35786924      -1.35739358       0.00000000
Si       1.35772263       1.35703845       1.35763375       0.00000000
Si      -1.35749457       1.35744570      -1.35773668       0.00000000
Si      -1.35847197      -1.36011726       1.35880031       0.00000000
Si      -0.00099369       2.71443528      -2.71399801       0.00000000
Si       2.71487511       2.71438641      -0.00034311       0.00000000
Si      -0.00275301      -2.71639008      -2.71310593       0.00000000
Si      -2.71555929      -0.00210141      -2.71416956       0.00000000
Si       2.71466334      -2.71554300       0.00013724       0.00000000
Si      -2.71544526       2.71480995      -0.00017155       0.00000000
