10
Lattice="16.28999089631971 0.0 0.0 0.0 16.28999089631971 0.0 0.0 0.0 34.31052061344573" Properties=species:S:1:pos:R:3:initial_magmoms:R:1 pbc="T T T"
Si       0.03866269       2.31498493      -0.03431054       0.00000000
Si      -1.59433066      -0.71168892      -1.53690632       0.00000000
Si      -0.86753602      -0.40738684       2.14952101       0.00000000
Si       1.74887322      -1.49039676      -0.55672282       0.00000000
Si      -1.92610909      -2.92535235      -0.72048703       0.00000000
Si       0.37707929      -3.49038729      -0.72199669       0.00000000
Si       1.96504152       2.80425508       1.19730060       0.00000000
Si       0.69463981      -1.89911493       3.12781743       0.00000000
Si      -3.43612693       0.77888680      -1.36308912       0.00000000
Si       0.15432983       3.04106281      -2.26885306       0.00000000
