10
Lattice="16.28999089631971 0.0 0.0 0.0 16.28999089631971 0.0 0.0 0.0 34.31052061344573" Properties=species:S:1:pos:R:3:initial_magmoms:R:1 pbc="T T T"
Si       1.35542574       1.35694071       1.35663874       0.00000000
Si      -1.35729909       1.35614250      -1.35708478       0.00000000
Si       1.35677781      -1.35816246      -1.35732495       0.00000000
Si      -1.35865116      -1.35672894       1.35705047       0.00000000
Si       0.00364896       2.71238274       2.71176782       0.00000000
Si       2.71401174       2.71436669       0.00054897       0.00000000
Si      -2.71580364      -0.00029322       2.71276283       0.00000000
Si      -2.71472850       2.71399116       0.00000000       0.00000000
Si      -0.00117288       2.71425565      -2.71458129       0.00000000
Si       2.71461447      -0.00115659      -2.71492439       0.00000000
