10
Lattice="16.28999089631971 0.0 0.0 0.0 16.28999089631971 0.0 0.0 0.0 34.31052061344573" Properties=species:S:1:pos:R:3:initial_magmoms:R:1 pbc="T T T"
Si       1.74508254       1.04278873      -1.09292793       0.00000000
Si       0.90968247      -1.85443731       1.08301219       0.00000000
Si      -1.68277329       1.09108206       1.23222873       0.00000000
Si      -1.35529542      -1.24152606      -1.59437647       0.00000000
Si       0.73710621      -2.07552519      -2.63625032       0.00000000
Si      -1.12202262      -2.49875568       2.12450862       0.00000000
Si      -2.59141320       0.73095920      -2.20500115       0.00000000
Si      -2.46268962      -2.50064532       0.17007735       0.00000000
Si       0.88695792       3.07678094      -1.74901408       0.00000000
Si       1.75319496      -3.12671889      -0.74728356       0.00000000
