10
Lattice="16.28999089631971 0.0 0.0 0.0 16.28999089631971 0.0 0.0 0.0 34.31052061344573" Properties=species:S:1:pos:R:3:initial_magmoms:R:1 pbc="T T T"
Si      -1.34066700      -0.00188964      -1.95443128       0.00000000
Si       2.03170509       0.64431837      -1.04149644       0.00000000
Si      -0.96264126       2.05685685       0.88051138       0.00000000
Si       0.37551708      -2.30501871       0.73781385       0.00000000
Si       1.12202262       2.49875568      -2.12450862       0.00000000
Si      -1.00825326      -2.22685929      -2.63329962       0.00000000
Si       0.51427530      -3.41791893      -1.35289889       0.00000000
Si      -0.56075067       3.58983774      -0.89227990       0.00000000
Si      -0.23327280       1.25722962      -3.71888510       0.00000000
Si       3.89001942       0.87444720       0.35312408       0.00000000
