10
Lattice="16.28999089631971 0.0 0.0 0.0 16.28999089631971 0.0 0.0 0.0 34.31052061344573" Properties=species:S:1:pos:R:3:initial_magmoms:R:1 pbc="T T T"
Si      -1.53471348       1.16253585      -1.33961042       0.00000000
Si       1.33946154       1.37355651       1.37732457       0.00000000
Si      -1.36837629      -1.34689467       1.38473564       0.00000000
Si       1.47427758      -1.37872370      -1.47868476       0.00000000
Si       2.71005327      -2.70225755       0.02418550       0.00000000
Si      -2.72082096      -2.70038420       0.03146276       0.00000000
Si      -0.01449810      -2.70069099       2.74147732       0.00000000
Si       2.70319518       0.01218492       2.73972748       0.00000000
Si       2.70443322       2.74426227      -0.01402958       0.00000000
Si      -2.72587086       2.73276153      -0.00774389       0.00000000
