10
Lattice="16.28999089631971 0.0 0.0 0.0 16.28999089631971 0.0 0.0 0.0 34.31052061344573" Properties=species:S:1:pos:R:3:initial_magmoms:R:1 pbc="T T T"
Si       1.35190710      -1.35767604      -1.36233429       0.00000000
Si       1.35097857       1.35538666       1.36909347       0.00000000
Si      -1.36301688       1.35786600      -1.36113342       0.00000000
Si      -1.38034944      -1.35899553       1.38727806       0.00000000
Si      -0.10249668       2.58982168       2.80265644       0.00000000
Si       2.71031391      -2.71243389      -0.00099501       0.00000000
Si       2.70744687       2.71745383      -0.00312226       0.00000000
Si       2.71010214       0.00174893      -2.71959063       0.00000000
Si      -2.72212416      -2.70992523      -0.00154397       0.00000000
Si      -0.00446346      -2.71355790      -2.71965925       0.00000000
