10
Lattice="16.28999089631971 0.0 0.0 0.0 16.28999089631971 0.0 0.0 0.0 34.31052061344573" Properties=species:S:1:pos:R:3:initial_magmoms:R:1 pbc="T T T"
Si      -0.28194732       2.34610209      -0.11497462       0.00000000
Si       1.56835233      -0.75189753      -1.71720821       0.00000000
Si       1.40271561      -0.63565209       1.90447513       0.00000000
Si      -1.68096510      -0.21009213      -2.00095637       0.00000000
Si      -1.38155490       2.14338933      -2.19909974       0.00000000
Si      -2.08821510       0.41702400       2.63106943       0.00000000
Si      -1.23720921       2.62497060       2.08930601       0.00000000
Si      -3.41541027      -1.13990904      -0.72038409       0.00000000
Si       1.18731294      -3.07561716      -1.77708010       0.00000000
Si       0.55197036      -2.71036767       2.61339951       0.00000000
