10
Lattice="16.28999089631971 0.0 0.0 0.0 16.28999089631971 0.0 0.0 0.0 34.31052061344573" Properties=species:S:1:pos:R:3:initial_magmoms:R:1 pbc="T T T"
Si       1.72361232      -0.82487673      -1.34323705       0.00000000
Si      -1.31900130      -1.38186441       1.36684270       0.00000000
Si       1.38114765       1.34786718       1.37679275       0.00000000
Si      -1.44730134       1.33450938      -1.51336586       0.00000000
Si       1.50304572       0.53830305      -3.27103103       0.00000000
Si       0.33322824       2.50150869      -2.63644521       0.00000000
Si      -2.69017947       2.70444951      -0.01196752       0.00000000
Si      -2.68131771      -0.01874979       2.72451076       0.00000000
Si      -2.67827148      -2.72948724      -0.02127940       0.00000000
Si       0.03479544       2.69568549       2.72996613       0.00000000
