10
Lattice="16.28999089631971 0.0 0.0 0.0 16.28999089631971 0.0 0.0 0.0 34.31052061344573" Properties=species:S:1:pos:R:3:initial_magmoms:R:1 pbc="T T T"
Si       1.36071999      -1.35804843       1.35272734       0.00000000
Si      -1.35785295      -1.35645201      -1.35732495       0.00000000
Si       1.35757602       1.35917244      -1.35749651       0.00000000
Si      -1.35946566       1.35798327       1.35979531       0.00000000
Si       2.71386513      -2.71186146      -0.00157828       0.00000000
Si      -0.00014661      -2.71331127      -2.71495870       0.00000000
Si       2.71448415       0.00154755      -2.71437542       0.00000000
Si       2.71393029       2.71612944      -0.00109794       0.00000000
Si      -2.71575477       0.00122175      -2.71485577       0.00000000
Si      -2.71479366       2.71612944       0.00017155       0.00000000
