10
Lattice="16.28999089631971 0.0 0.0 0.0 16.28999089631971 0.0 0.0 0.0 34.31052061344573" Properties=species:S:1:pos:R:3:initial_magmoms:R:1 pbc="T T T"
Si      -2.31415740      -0.24591384       0.45289913       0.00000000
Si      -0.09997173       1.79628201      -1.59454803       0.00000000
Si       1.07797446       0.76155750       2.04271230       0.00000000
Si       0.80192412      -1.92953421      -1.25182004       0.00000000
Si      -3.08918673       1.98193914       0.56591804       0.00000000
Si      -2.35748880       2.39176296      -1.61719298       0.00000000
Si       0.17469396       0.68817105      -3.66608118       0.00000000
Si       3.46356351       0.81741591       1.45737449       0.00000000
Si       1.53230256      -1.15637823      -3.33292583       0.00000000
Si      -2.77384491      -1.17361305       2.53084835       0.00000000
