10
Lattice="16.28999089631971 0.0 0.0 0.0 16.28999089631971 0.0 0.0 0.0 34.31052061344573" Properties=species:S:1:pos:R:3:initial_magmoms:R:1 pbc="T T T"
Si       0.80119107      -0.08117307      -2.26720616       0.00000000
Si       1.76358798       0.77323743       1.48189421       0.00000000
Si      -1.82419655       1.62942354       0.04374594       0.00000000
Si      -0.88825623      -1.87798288       1.44947761       0.00000000
Si      -0.89317255      -1.69678432      -2.35274233       0.00000000
Si       0.44733969       2.14795053       2.82606450       0.00000000
Si      -2.27585051      -0.57213738       2.82025916       0.00000000
Si      -0.77161332       3.37624911       1.22133997       0.00000000
Si      -2.12554934      -3.07355322      -0.12492468       0.00000000
Si       2.93853681       2.37193803       0.16207377       0.00000000
