10
Lattice="16.28999089631971 0.0 0.0 0.0 16.28999089631971 0.0 0.0 0.0 34.31052061344573" Properties=species:S:1:pos:R:3:initial_magmoms:R:1 pbc="T T T"
Si      -1.35783666      -1.35630540      -1.35866307       0.00000000
Si       1.35710361       1.35909099      -1.35825134       0.00000000
Si       1.36044306      -1.36005210       1.35574667       0.00000000
Si      -1.36055709       1.36272366       1.35986393       0.00000000
Si      -0.00425169      -2.69483841       2.72305599       0.00000000
Si       2.71373481      -2.71365336      -0.00195570       0.00000000
Si      -0.00034209      -2.71257822      -2.71540474       0.00000000
Si       2.71347417       2.71497285      -0.00092638       0.00000000
Si      -2.71498914      -2.71365336      -0.00068621       0.00000000
Si       2.71357191       0.00167787      -2.71516457       0.00000000
