10
Lattice="16.28999089631971 0.0 0.0 0.0 16.28999089631971 0.0 0.0 0.0 34.31052061344573" Properties=species:S:1:pos:R:3:initial_magmoms:R:1 pbc="T T T"
Si       0.84173688      -2.21983830       0.13638440       0.00000000
Si      -1.51979184       0.45032076      -1.81423841       0.00000000
Si       1.87497900       1.24335054       0.87728619       0.00000000
Si      -1.50827481       0.59305374       1.97494898       0.00000000
Si       3.62268423      -0.30643119       0.42898468       0.00000000
Si       1.68195879       3.26344086      -0.23235098       0.00000000
Si      -3.61597275      -0.04732245      -0.86846838       0.00000000
Si      -1.00232370      -3.56377959       0.50017905       0.00000000
Si      -1.25503047       2.74263327      -2.38736167       0.00000000
Si       2.65624740      -2.05151373       1.88069793       0.00000000
