10
Lattice="16.28999089631971 0.0 0.0 0.0 16.28999089631971 0.0 0.0 0.0 34.31052061344573" Properties=species:S:1:pos:R:3:initial_magmoms:R:1 pbc="T T T"
Si       1.33913574      -1.37658645      -1.34257142       0.00000000
Si       1.35244467       1.35348953       1.35327288       0.00000000
Si      -1.36524861       1.24803133      -1.44369488       0.00000000
Si      -1.36661697      -1.35454608       1.34723422       0.00000000
Si      -2.18466819      -0.71527761      -2.72393232       0.00000000
Si      -0.36030222      -2.48681511      -2.80638055       0.00000000
Si      -2.71709055       2.68937216      -0.02565742       0.00000000
Si       2.64943818      -0.05387103      -2.75772820       0.00000000
Si       2.70632286      -0.00030679       2.71001455       0.00000000
Si       2.72082096       2.70038420      -0.03146276       0.00000000
