10
Lattice="16.28999089631971 0.0 0.0 0.0 16.28999089631971 0.0 0.0 0.0 34.31052061344573" Properties=species:S:1:pos:R:3:initial_magmoms:R:1 pbc="T T T"
Si      -1.35783666      -1.35700587       1.35759944       0.00000000
Si       1.35804843       1.35804843       1.35759944       0.00000000
Si       1.35917244      -1.35987291      -1.35893755       0.00000000
Si      -1.35889551       1.36228383      -1.36154515       0.00000000
Si       0.00772146       2.71682991      -2.70877937       0.00000000
Si      -2.71461447       0.00115659       2.71492439       0.00000000
Si       0.00019548      -2.71487511       2.71478715       0.00000000
Si       2.71513575       0.00052128       2.71519888       0.00000000
Si      -2.71567332      -2.71482624       0.00113225       0.00000000
Si       2.71404432       2.71652312       0.00123518       0.00000000
