10
Lattice="16.28999089631971 0.0 0.0 0.0 16.28999089631971 0.0 0.0 0.0 34.31052061344573" Properties=species:S:1:pos:R:3:initial_magmoms:R:1 pbc="T T T"
Si       1.23577569      -1.32353385       1.50287026       0.00000000
Si       1.50066738       1.18172873      -1.44592990       0.00000000
Si      -1.54566036      -1.37553153      -1.24758067       0.00000000
Si      -1.47427758       1.37872370       1.47868476       0.00000000
Si       2.75670783      -2.49543645       0.13868663       0.00000000
Si       2.58302385       2.68472558       0.03975905       0.00000000
Si       2.58313788       0.03679422       2.86527318       0.00000000
Si      -0.13058064      -2.68083294       2.86033246       0.00000000
Si      -2.85596280      -2.69824695       0.16757611       0.00000000
Si      -3.00899106       2.54125955       0.13907434       0.00000000
