10
Lattice="16.28999089631971 0.0 0.0 0.0 16.28999089631971 0.0 0.0 0.0 34.31052061344573" Properties=species:S:1:pos:R:3:initial_magmoms:R:1 pbc="T T T"
Si      -1.35422028       1.35411439       1.35313907       0.00000000
Si       1.34760654       1.35437503      -1.36512717       0.00000000
Si       1.35635768      -1.36016712       1.35303614       0.00000000
Si      -1.34736219      -1.36032807      -1.36240291       0.00000000
Si       0.17356995      -2.53223067      -2.72658654       0.00000000
Si       0.00270414       2.71283071       2.71224817       0.00000000
Si      -2.71362078      -0.00223825       2.71145903       0.00000000
Si       2.71602911      -0.00195643       2.71180213       0.00000000
Si       0.00197109      -2.71702443       2.71156196       0.00000000
Si       2.71527163       2.71522535      -0.00387709       0.00000000
