10
Lattice="16.28999089631971 0.0 0.0 0.0 16.28999089631971 0.0 0.0 0.0 34.31052061344573" Properties=species:S:1:pos:R:3:initial_magmoms:R:1 pbc="T T T"
Si      -1.89882756       1.11747771      -0.86671855       0.00000000
Si      -0.06975378      -1.31890356       2.02998309       0.00000000
Si       1.46380311       1.91848959       0.44593409       0.00000000
Si       0.38711556      -2.08851809      -1.30016359       0.00000000
Si       2.50264899      -2.60890051      -0.43269022       0.00000000
Si      -1.16844912       1.89063369      -2.94782434       0.00000000
Si      -3.56439861      -0.61571313      -0.85875850       0.00000000
Si      -1.85878674      -2.78503288       1.71226749       0.00000000
Si      -1.31025357      -3.50485214      -0.46586851       0.00000000
Si       1.77204249      -2.80947928       1.85616589       0.00000000
