10
Lattice="16.28999089631971 0.0 0.0 0.0 16.28999089631971 0.0 0.0 0.0 34.31052061344573" Properties=species:S:1:pos:R:3:initial_magmoms:R:1 pbc="T T T"
Si      -2.11553343       0.52038242      -0.86747338       0.00000000
Si       1.22955684       2.01964234      -0.26045131       0.00000000
Si       0.68025804      -1.81284798      -1.40559988       0.00000000
Si      -0.73060650      -0.20057877       2.28885611       0.00000000
Si       3.11630048      -0.94962571       0.95572009       0.00000000
Si       3.36822533       1.12160722      -0.13164954       0.00000000
Si      -2.50264899       2.60890051       0.43269022       0.00000000
Si      -0.07229502      -3.69284430      -0.27376380       0.00000000
Si      -2.57240277       1.28999695       2.46267330       0.00000000
Si      -2.11035321      -0.01314929      -3.18703742       0.00000000
