10
Lattice="16.28999089631971 0.0 0.0 0.0 16.28999089631971 0.0 0.0 0.0 34.31052061344573" Properties=species:S:1:pos:R:3:initial_magmoms:R:1 pbc="T T T"
Si       2.11553343      -0.52038242       0.86747338       0.00000000
Si      -1.69736913      -1.41633405       0.83429509       0.00000000
Si       0.00518022      -0.53353171      -2.31956404       0.00000000
Si      -0.38711556       2.08851809       1.30016359       0.00000000
Si      -0.45686934       0.76961453       3.33014668       0.00000000
Si       1.38492693      -0.72096119       3.15632949       0.00000000
Si       2.79579147      -2.33323040      -0.53812651       0.00000000
Si       3.34509027       1.49925992       0.60702207       0.00000000
Si      -3.65368410      -0.78049300      -0.29493340       0.00000000
Si       1.72201590      -2.19551474      -2.60907638       0.00000000
