10
Lattice="16.28999089631971 0.0 0.0 0.0 16.28999089631971 0.0 0.0 0.0 34.31052061344573" Properties=species:S:1:pos:R:3:initial_magmoms:R:1 pbc="T T T"
Si      -1.35796698      -1.34936586       1.36384396       0.00000000
Si      -1.35628911       1.35700587      -1.35910910       0.00000000
Si       1.35210162       1.35860229       1.36603983       0.00000000
Si       1.35892387      -1.36039419      -1.35818272       0.00000000
Si       0.10669007      -2.62469367       2.65028334       0.00000000
Si      -2.71309950      -0.00052128      -2.71691440       0.00000000
Si      -2.71601541      -2.71428867      -0.00034311       0.00000000
Si      -2.71303434       2.71731861       0.00048035       0.00000000
Si       0.00181150      -2.71467963      -2.71742906       0.00000000
Si       0.00188579       2.71492398      -2.71722320       0.00000000
