10
Lattice="16.28999089631971 0.0 0.0 0.0 16.28999089631971 0.0 0.0 0.0 34.31052061344573" Properties=species:S:1:pos:R:3:initial_magmoms:R:1 pbc="T T T"
Si       0.81727160       0.00480555       2.15401569       0.00000000
Si       1.75698468      -0.33140376      -1.52102054       0.00000000
Si      -1.63159011      -1.65982068      -0.42112757       0.00000000
Si       1.52037081       2.44066554       0.09826539       0.00000000
Si      -0.62796321       3.16991997       0.90072029       0.00000000
Si       0.51439619      -1.58319252      -3.05816703       0.00000000
Si      -1.41512859       2.81727405      -1.56157560       0.00000000
Si       3.17105117       0.01132155       1.56466355       0.00000000
Si      -0.11331324       1.94510745       3.13186607       0.00000000
Si      -0.40048965      -3.24434898      -1.74146576       0.00000000
