10
Lattice="16.28999089631971 0.0 0.0 0.0 16.28999089631971 0.0 0.0 0.0 34.31052061344573" Properties=species:S:1:pos:R:3:initial_magmoms:R:1 pbc="T T T"
Si      -1.35272160      -1.36230012       1.34768369       0.00000000
Si       1.35225638      -1.35404109      -1.35866307       0.00000000
Si       1.35955918       1.35107631       1.36082463       0.00000000
Si      -1.36023129       1.35799956      -1.35801116       0.00000000
Si      -0.02218698       2.66411547       2.73818694       0.00000000
Si      -2.70925506      -0.04414590       2.69581342       0.00000000
Si       2.70999530      -2.70811476       0.00545538       0.00000000
Si       2.71137995       0.00241092      -2.71530181       0.00000000
Si      -0.00353878      -2.71238274      -2.71540474       0.00000000
Si      -2.71845891      -2.70998811       0.00229881       0.00000000
