10
Lattice="16.28999089631971 0.0 0.0 0.0 16.28999089631971 0.0 0.0 0.0 34.31052061344573" Properties=species:S:1:pos:R:3:initial_magmoms:R:1 pbc="T T T"
Si      -1.33178895      -1.26690588      -1.45758035       0.00000000
Si      -0.76279554       1.38209247       1.76318433       0.00000000
Si       1.43900973       1.36357074      -1.35859444       0.00000000
Si      -0.20601963      -2.26611819       0.95939131       0.00000000
Si      -2.88441980       0.12048084       1.57118255       0.00000000
Si      -2.64780592      -2.65158846      -0.04810338       0.00000000
Si       0.78807762       1.26516285       3.52671176       0.00000000
Si       0.06716367      -2.64222171      -2.85443105       0.00000000
Si      -2.64498287       0.07991874      -2.86949337       0.00000000
Si       0.08252514       2.79696042      -2.83624646       0.00000000
