10
Lattice="16.28999089631971 0.0 0.0 0.0 16.28999089631971 0.0 0.0 0.0 34.31052061344573" Properties=species:S:1:pos:R:3:initial_magmoms:R:1 pbc="T T T"
Si      -1.90223217      -0.87454494      -1.14106562       0.00000000
Si      -1.03433355       0.34230177       2.13668887       0.00000000
Si       0.95402385       1.92549429      -1.15070688       0.00000000
Si       1.83501963      -1.68189363       0.30217292       0.00000000
Si       1.16080911       0.59499225       2.99874118       0.00000000
Si      -0.41778963      -2.12750658      -2.47694649       0.00000000
Si       2.31055731       0.60734007      -2.49883661       0.00000000
Si       0.94613949      -3.49813089      -1.00684279       0.00000000
Si       3.58073748      -0.77831991      -1.06424432       0.00000000
Si       2.70920619       2.81030193       0.14396702       0.00000000
