10
Lattice="16.28999089631971 0.0 0.0 0.0 16.28999089631971 0.0 0.0 0.0 34.31052061344573" Properties=species:S:1:pos:R:3:initial_magmoms:R:1 pbc="T T T"
Si      -2.29060206      -0.20968488      -0.47592150       0.00000000
Si       0.19893348       2.13470676      -0.98334007       0.00000000
Si       0.03267774       0.30432978       2.35133560       0.00000000
Si       1.07663868      -1.84764438      -1.06451881       0.00000000
Si       0.18937125      -1.34188875      -3.20336924       0.00000000
Si      -2.07682839      -0.93719628      -2.72538911       0.00000000
Si       3.33156794      -0.90665253      -0.86160628       0.00000000
Si      -2.99848401      -1.75661586       1.10991165       0.00000000
Si       0.89609661       3.47420088       0.81789465       0.00000000
Si      -1.98192285      -0.80231508       3.09446758       0.00000000
