10
Lattice="16.28999089631971 0.0 0.0 0.0 16.28999089631971 0.0 0.0 0.0 34.31052061344573" Properties=species:S:1:pos:R:3:initial_magmoms:R:1 pbc="T T T"
Si      -1.01647971      -2.07402651       0.24037964       0.00000000
Si       2.24844354      -0.45538695      -0.46899077       0.00000000
Si       0.32656563       0.58707531       2.25958922       0.00000000
Si      -1.00069470       1.67143545      -1.45284550       0.00000000
Si       2.65932621       1.89405459      -0.79562711       0.00000000
Si      -2.45438172      -1.32633180       1.96698894       0.00000000
Si       1.01390589       2.77808031      -2.19597748       0.00000000
Si      -1.42113960       2.13685704       2.70789073       0.00000000
Si      -1.90382859      -2.62343934      -1.87208598       0.00000000
Si       2.28819114      -1.81218105      -2.48521533       0.00000000
