10
Lattice="16.28999089631971 0.0 0.0 0.0 16.28999089631971 0.0 0.0 0.0 34.31052061344573" Properties=species:S:1:pos:R:3:initial_magmoms:R:1 pbc="T T T"
Si      -1.35819504      -1.35625653      -1.35711909       0.00000000
Si       1.35716850       1.35943308      -1.35701616       0.00000000
Si       1.36023129      -1.35799956       1.35801116       0.00000000
Si      -1.35834165       1.36050822       1.36161377       0.00000000
Si       2.71248767      -2.71204065      -0.00065190       0.00000000
Si       0.00750969      -2.72029968       2.70569486       0.00000000
Si      -0.00130320      -2.71252935      -2.71475284       0.00000000
Si      -0.00035838       2.71210581       2.71519888       0.00000000
Si       2.71462329       0.00200367      -2.71437542       0.00000000
Si      -2.71648782      -2.71336014      -0.00075483       0.00000000
