10
Lattice="16.28999089631971 0.0 0.0 0.0 16.28999089631971 0.0 0.0 0.0 34.31052061344573" Properties=species:S:1:pos:R:3:initial_magmoms:R:1 pbc="T T T"
Si       1.68725304       0.06089202      -1.57780448       0.00000000
Si      -1.94988042       0.52059582      -1.16611232       0.00000000
Si       0.69716313       1.33949412       1.80123472       0.00000000
Si      -0.19893348      -2.13470676       0.98334007       0.00000000
Si       3.32507963      -0.63640143      -0.07500284       0.00000000
Si      -2.48953554      -2.34439164       0.50741857       0.00000000
Si      -3.50813295      -0.17565507       0.45025721       0.00000000
Si       3.00035151       0.77445918       1.79972505       0.00000000
Si       1.30346064      -1.71141111      -3.05044716       0.00000000
Si      -2.05335450       2.85778469      -1.33721898       0.00000000
