10
Lattice="16.28999089631971 0.0 0.0 0.0 16.28999089631971 0.0 0.0 0.0 34.31052061344573" Properties=species:S:1:pos:R:3:initial_magmoms:R:1 pbc="T T T"
Si       0.89111187      -2.16683064       0.10567646       0.00000000
Si      -0.22335219       0.76286070      -2.26686305       0.00000000
Si      -1.52658477       0.51228792       1.84470617       0.00000000
Si       1.99041061       1.32988302       0.85687142       0.00000000
Si       3.28183946      -1.57876164      -0.41021681       0.00000000
Si      -3.42671553       1.25910297       0.66404619       0.00000000
Si       1.30416341       2.53534302      -2.37669109       0.00000000
Si      -0.24290019       1.92534768       3.31146600       0.00000000
Si       1.08143757       3.31053755       1.72774154       0.00000000
Si       0.93846690      -0.79338816      -3.69912223       0.00000000
