10
Lattice="16.28999089631971 0.0 0.0 0.0 16.28999089631971 0.0 0.0 0.0 34.31052061344573" Properties=species:S:1:pos:R:3:initial_magmoms:R:1 pbc="T T T"
Si       2.22957239       0.49764321      -0.49993888       0.00000000
Si      -0.98583645      -2.06319366      -0.68247095       0.00000000
Si       0.43563777       0.49462956       2.38115146       0.00000000
Si      -1.26139809       1.44945162      -1.57080513       0.00000000
Si      -0.90735123       2.48741784       1.94115310       0.00000000
Si      -3.11342448      -1.78362468       0.27877314       0.00000000
Si       2.55586109      -0.41140395      -2.60629722       0.00000000
Si      -0.66433701      -1.23838209       3.46622228       0.00000000
Si       2.29981487       2.85803163      -0.86033679       0.00000000
Si      -1.22165049       0.09265752      -3.58702969       0.00000000
