10
Lattice="16.28999089631971 0.0 0.0 0.0 16.28999089631971 0.0 0.0 0.0 34.31052061344573" Properties=species:S:1:pos:R:3:initial_magmoms:R:1 pbc="T T T"
Si      -1.35599263      -1.35657804       1.35691323       0.00000000
Si       1.35742941      -1.35784866      -1.35708478       0.00000000
Si      -1.35866093       1.35818045      -1.35677599       0.00000000
Si       1.35754344       1.35846553       1.35763375       0.00000000
Si       0.00063531       2.71260599       2.71183644       0.00000000
Si      -0.00107514      -2.71428438       2.71276283       0.00000000
Si       2.71355562       0.00026449      -2.71458129       0.00000000
Si       2.71472850      -2.71399116       0.00000000       0.00000000
Si      -0.00074934      -2.71483824      -2.71461560       0.00000000
Si       2.71482624       2.71490288      -0.00024017       0.00000000
