10
Lattice="16.28999089631971 0.0 0.0 0.0 16.28999089631971 0.0 0.0 0.0 34.31052061344573" Properties=species:S:1:pos:R:3:initial_magmoms:R:1 pbc="T T T"
Si       0.59939544      -0.94851783      -2.12986107       0.00000000
Si      -2.36531682       1.05384897      -0.02020891       0.00000000
Si      -1.27033560       1.04415642       2.10285867       0.00000000
Si      -1.33150455       0.92691729      -2.17731254       0.00000000
Si       2.55894560       0.98580564       0.23331167       0.00000000
Si      -2.87990163      -1.28839239       0.67746161       0.00000000
Si      -1.41852573      -3.21263235       0.44318924       0.00000000
Si       2.85143255      -2.68027515      -0.16726388       0.00000000
Si       1.70233595      -1.05212223       3.38977840       0.00000000
Si      -2.58335847      -0.72102798       2.93327667       0.00000000
