10
Lattice="16.28999089631971 0.0 0.0 0.0 16.28999089631971 0.0 0.0 0.0 34.31052061344573" Properties=species:S:1:pos:R:3:initial_magmoms:R:1 pbc="T T T"
Si      -1.14349773       0.76633047       1.88526123       0.00000000
Si       2.33701227      -0.09151722      -0.15130948       0.00000000
Si      -0.57977250      -2.29910544       0.02422324       0.00000000
Si       2.69996976      -1.74508254      -1.79351485       0.00000000
Si      -0.95105255       3.17128833       1.68852459       0.00000000
Si       3.12051240      -1.07240328       1.83132506       0.00000000
Si      -0.21058083      -0.27505665       3.76125861       0.00000000
Si       1.25320599      -3.41969454      -1.03003671       0.00000000
Si      -3.39842699      -0.17466138       1.68234870       0.00000000
Si       0.85660965       2.03792787      -3.15646673       0.00000000
