10
Lattice="16.28999089631971 0.0 0.0 0.0 16.28999089631971 0.0 0.0 0.0 34.31052061344573" Properties=species:S:1:pos:R:3:initial_magmoms:R:1 pbc="T T T"
Si       1.35650036      -1.35331246      -1.36051583       0.00000000
Si      -1.36025855      -1.35863929       1.35509477       0.00000000
Si      -1.36040516       1.36063968      -1.35880031       0.00000000
Si       1.36885307       1.36359632       1.35835427       0.00000000
Si      -2.57821298       0.06657625       2.72470290       0.00000000
Si       2.71141785      -2.71101880      -0.00466623       0.00000000
Si      -0.00273167      -2.71131202      -2.71712027       0.00000000
Si      -2.71824182      -2.71023688       0.00150966       0.00000000
Si       2.71312830       2.71587157      -0.00559262       0.00000000
Si       2.71249299       0.00326558      -2.71742906       0.00000000
