10
Lattice="16.28999089631971 0.0 0.0 0.0 16.28999089631971 0.0 0.0 0.0 34.395419527814205" Properties=species:S:1:pos:R:3:initial_magmoms:R:1 pbc="T T T"
Si      -1.37880841       1.39176873      -1.40457214       0.00000000
Si       1.31672070      -1.32416849      -1.58931004       0.00000000
Si      -0.71169381      -2.43901210       0.60112908       0.00000000
Si       0.89269200       1.07966862       2.21448153       0.00000000
Si      -0.97640631      -2.00869058       2.94634768       0.00000000
Si      -2.89847060      -0.84222558       2.15263853       0.00000000
Si       2.70251100      -2.67500501      -0.11721966       0.00000000
Si       3.76603623      -0.58815045       0.37663005       0.00000000
Si       3.21602067       1.53435510       1.56513004       0.00000000
Si      -2.64156555      -0.09964593      -2.87518352       0.00000000
