10
Lattice="16.28999089631971 0.0 0.0 0.0 16.28999089631971 0.0 0.0 0.0 34.395419527814205" Properties=species:S:1:pos:R:3:initial_magmoms:R:1 pbc="T T T"
Si      -0.71122303       0.57293559       2.17035219       0.00000000
Si      -1.43114166       1.49095854      -1.16507670       0.00000000
Si       2.34634644       0.35535006      -0.25163703       0.00000000
Si      -0.78750584      -2.28527523      -0.11181957       0.00000000
Si      -3.38352164       0.15982119      -1.35370128       0.00000000
Si      -2.79646262      -2.06457831      -1.30575404       0.00000000
Si      -0.47935931      -3.15789795       2.04704454       0.00000000
Si      -1.37500958      -1.41393942       3.26189143       0.00000000
Si      -0.40696981       2.33369793      -3.05548441       0.00000000
Si      -2.88644858       1.43268921       2.15858895       0.00000000
