10
Lattice="16.28999089631971 0.0 0.0 0.0 16.28999089631971 0.0 0.0 0.0 34.395419527814205" Properties=species:S:1:pos:R:3:initial_magmoms:R:1 pbc="T T T"
Si      -2.17522555       0.85975362      -0.01176324       0.00000000
Si       0.71122303      -0.57293559      -2.17035219       0.00000000
Si      -0.66378655      -1.98687501       1.09153925       0.00000000
Si       1.29018592       1.41770145       1.42806422       0.00000000
Si       0.31357436       0.53134722       3.28414528       0.00000000
Si      -0.71991863       0.91802295      -3.33542888       0.00000000
Si      -0.07628281      -2.85821082      -2.28217176       0.00000000
Si       0.57692827      -1.73275101       3.18604949       0.00000000
Si       0.23186372      -3.73083354      -0.12330765       0.00000000
Si      -3.14672857       0.50163426       2.06176578       0.00000000
