10
Lattice="16.28999089631971 0.0 0.0 0.0 16.28999089631971 0.0 0.0 0.0 34.395419527814205" Properties=species:S:1:pos:R:3:initial_magmoms:R:1 pbc="T T T"
Si      -1.35957969      -1.34677575       1.36185300       0.00000000
Si       1.35601218      -1.35451350      -1.36216256       0.00000000
Si      -1.36016613       1.36013355      -1.36130267       0.00000000
Si       1.36805049       1.35780408       1.39057319       0.00000000
Si      -2.70834282       0.09596439       2.66967077       0.00000000
Si       2.71340901      -2.71336014      -0.00189175       0.00000000
Si       0.05020578      -2.68903917       2.73901197       0.00000000
Si       2.71476108       2.71414206       0.00182296       0.00000000
Si      -2.71704168      -2.71344159      -0.00147900       0.00000000
Si      -0.00228060      -2.71231758      -2.71851229       0.00000000
