10
Lattice="16.28999089631971 0.0 0.0 0.0 16.28999089631971 0.0 0.0 0.0 34.395419527814205" Properties=species:S:1:pos:R:3:initial_magmoms:R:1 pbc="T T T"
Si       0.58121091      -1.91818008      -1.17794059       0.00000000
Si      -2.29539132      -0.26042823       0.35699026       0.00000000
Si       1.10104110       0.82924245       1.92924016       0.00000000
Si       1.57250628      -0.10577097      -2.34184784       0.00000000
Si      -2.70073539       1.33784883      -1.26977641       0.00000000
Si      -0.52352802      -0.16390998       3.45560654       0.00000000
Si      -2.62052343       0.40741290       2.53800503       0.00000000
Si       3.55690521       0.55529352      -0.90325862       0.00000000
Si       3.42787212       0.36426069       1.53947105       0.00000000
Si      -1.19516472       2.70953199      -2.45831080       0.00000000
