10
Lattice="16.28999089631971 0.0 0.0 0.0 16.28999089631971 0.0 0.0 0.0 34.395419527814205" Properties=species:S:1:pos:R:3:initial_magmoms:R:1 pbc="T T T"
Si       0.97031385       0.19776060       2.09973835       0.00000000
Si      -2.06371494       1.12158279       0.05190272       0.00000000
Si       1.45774323       0.76696578      -1.70092324       0.00000000
Si      -0.38366208      -2.31454836       0.38430024       0.00000000
Si      -3.24465849      -0.50249763      -1.07582053       0.00000000
Si       3.22234119       0.27047916       1.45881374       0.00000000
Si       3.44968443      -0.29235663      -0.80371822       0.00000000
Si       0.69766812       3.10085037      -1.67048327       0.00000000
Si       0.57731760      -2.31417369       2.69863173       0.00000000
Si      -2.70620883      -2.37544038       0.26556718       0.00000000
