10
Lattice="16.28999089631971 0.0 0.0 0.0 16.28999089631971 0.0 0.0 0.0 34.395419527814205" Properties=species:S:1:pos:R:3:initial_magmoms:R:1 pbc="T T T"
Si      -2.28866306       0.55855152       0.09892128       0.00000000
Si       0.13046661      -2.37556256       0.22088751       0.00000000
Si       1.12433580       0.85263489      -1.96858854       0.00000000
Si       0.90644076       1.02198573       2.07411375       0.00000000
Si      -0.37594062       3.18645432       1.09604505       0.00000000
Si       3.25394379       0.76044978       1.67127437       0.00000000
Si       2.46133755      -2.83814873       0.17097973       0.00000000
Si      -3.42318779      -0.61965531      -1.55900766       0.00000000
Si       3.72723345      -0.88071885      -0.01850475       0.00000000
Si       3.13427745      -0.34995807      -2.26043384       0.00000000
