10
Lattice="16.28999089631971 0.0 0.0 0.0 16.28999089631971 0.0 0.0 0.0 34.395419527814205" Properties=species:S:1:pos:R:3:initial_magmoms:R:1 pbc="T T T"
Si       1.35687555      -1.35848826       1.36181861       0.00000000
Si      -1.35876519       1.35858600       1.36271289       0.00000000
Si       1.36252818       1.36764324      -1.38222198       0.00000000
Si      -1.36533006      -1.36935369      -1.37862766       0.00000000
Si       2.71404432       2.71422351       0.00357713       0.00000000
Si      -2.71412577      -2.71479366       0.00560646       0.00000000
Si       2.71581993      -2.71445157      -0.00154779       0.00000000
Si      -2.71437012       2.71604799       0.00409306       0.00000000
Si       2.71464705       0.00034209       2.71957855       0.00000000
Si      -0.00042354      -2.71487511       2.71964734       0.00000000
