10
Lattice="16.28999089631971 0.0 0.0 0.0 16.28999089631971 0.0 0.0 0.0 34.395419527814205" Properties=species:S:1:pos:R:3:initial_magmoms:R:1 pbc="T T T"
Si       0.85616982       1.70738748       1.46586622       0.00000000
Si      -1.75835075      -0.87636616       1.50827580       0.00000000
Si       0.02629206       1.48532220      -2.16591517       0.00000000
Si       1.78398306      -1.97019731      -0.06218695       0.00000000
Si       2.20706694       0.40340556       2.89779993       0.00000000
Si       2.37379509       1.22378625      -2.56875455       0.00000000
Si      -0.51790797      -2.30940791       2.91830305       0.00000000
Si       1.72307475       3.41101197       0.11047815       0.00000000
Si      -1.72629365      -2.79858032      -2.16306035       0.00000000
Si       3.55913694      -1.03364774       1.36658723       0.00000000
