10
Lattice="16.28999089631971 0.0 0.0 0.0 16.28999089631971 0.0 0.0 0.0 34.395419527814205" Properties=species:S:1:pos:R:3:initial_magmoms:R:1 pbc="T T T"
Si      -1.58693922      -1.66936662       0.36018903       0.00000000
Si      -0.80669709       2.17269504      -0.37491028       0.00000000
Si       0.94762188      -0.51267888      -2.16350749       0.00000000
Si      -0.51572511      -0.31884417       2.45005589       0.00000000
Si       2.82941010      -1.02962574      -0.85259414       0.00000000
Si      -2.28450960       1.49454234       2.50357520       0.00000000
Si      -0.68981634       2.59400331      -2.74362096       0.00000000
Si      -3.70149525      -0.95096133      -0.37876257       0.00000000
Si       0.43629507       3.90715650       0.64085581       0.00000000
Si       1.06295508       1.29275811      -3.64433432       0.00000000
