10
Lattice="16.28999089631971 0.0 0.0 0.0 16.28999089631971 0.0 0.0 0.0 34.395419527814205" Properties=species:S:1:pos:R:3:initial_magmoms:R:1 pbc="T T T"
Si      -0.66323106      -1.94838174       1.36511510       0.00000000
Si       0.51572511       0.31884417      -2.45005589       0.00000000
Si      -1.76878449       1.81338651       0.05351930       0.00000000
Si       2.03616855       0.80853786       1.34516231       0.00000000
Si      -1.07121411      -1.35052245      -2.08986686       0.00000000
Si      -1.99651869      -0.61828695       2.89670616       0.00000000
Si       0.73133955       2.11870998       2.89311183       0.00000000
Si      -0.29097198       2.49153921      -2.82496618       0.00000000
Si      -0.71288298       3.41601300       1.45168155       0.00000000
Si      -3.43960092       0.68921361       1.46912691       0.00000000
