10
Lattice="16.28999089631971 0.0 0.0 0.0 16.28999089631971 0.0 0.0 0.0 34.395419527814205" Properties=species:S:1:pos:R:3:initial_magmoms:R:1 pbc="T T T"
Si      -0.83663811      -1.82764026       1.24478840       0.00000000
Si       0.82826505      -1.01765259      -2.01609323       0.00000000
Si       1.85756499       0.82688040       1.32414555       0.00000000
Si      -1.75578507       1.94137704      -0.13937490       0.00000000
Si      -0.04813695       0.60491286      -3.40147271       0.00000000
Si      -2.12537259      -0.42986052       2.69020512       0.00000000
Si       0.60103584       2.29700403       2.69901035       0.00000000
Si      -2.30016429       0.53219430      -2.76054810       0.00000000
Si      -3.48182460       0.80101188       1.09515448       0.00000000
Si       2.90204721       2.45871486      -0.01510418       0.00000000
