10
Lattice="16.28999089631971 0.0 0.0 0.0 16.28999089631971 0.0 0.0 0.0 34.395419527814205" Properties=species:S:1:pos:R:3:initial_magmoms:R:1 pbc="T T T"
Si       1.04448222       1.63183446      -1.33924973       0.00000000
Si      -1.25652915       1.47012363       1.37486480       0.00000000
Si       1.47097071      -1.26781812       1.36747666       0.00000000
Si      -1.85756499      -0.82688040      -1.32414555       0.00000000
Si       2.20405329      -0.14165784      -2.64122028       0.00000000
Si      -2.69420310      -2.65452066      -0.07935716       0.00000000
Si       0.10153557      -2.60524341       2.74787224       0.00000000
Si      -2.61205263       0.11344356       2.74635884       0.00000000
Si      -2.50841565       2.85109209      -0.16570347       0.00000000
Si       2.74020606       2.70313002       0.00049185       0.00000000
