10
Lattice="16.28999089631971 0.0 0.0 0.0 16.28999089631971 0.0 0.0 0.0 34.395419527814205" Properties=species:S:1:pos:R:3:initial_magmoms:R:1 pbc="T T T"
Si       1.83774006      -0.25306515       1.41833031       0.00000000
Si      -1.81903914      -1.53225369       0.36696494       0.00000000
Si      -0.49549293       2.23381512       0.75043968       0.00000000
Si       0.67140864      -0.32031027      -2.29417576       0.00000000
Si      -2.58730812      -1.44748053      -1.84847967       0.00000000
Si       1.20422196       3.42244755      -0.39279591       0.00000000
Si       0.99699687       0.39297996       3.53808681       0.00000000
Si       2.44486836      -2.47311522       1.33705389       0.00000000
Si      -0.69595767      -2.07006804      -3.05682583       0.00000000
Si      -3.51728793      -0.26026533       1.31768926       0.00000000
