10
Lattice="16.28999089631971 0.0 0.0 0.0 16.28999089631971 0.0 0.0 0.0 34.395419527814205" Properties=species:S:1:pos:R:3:initial_magmoms:R:1 pbc="T T T"
Si      -1.35682668      -1.35637056       1.35710643       0.00000000
Si       1.35685926      -1.35669636      -1.35751918       0.00000000
Si       1.35808101       1.35806472       1.35693445       0.00000000
Si      -1.35791811       1.35791811      -1.35772555       0.00000000
Si       2.71389771      -2.71425609      -0.00024077       0.00000000
Si       2.71370223       0.00053757      -2.71469440       0.00000000
Si       2.71407690       0.00112401       2.71438484       0.00000000
Si      -0.00043983      -2.71396287      -2.71452242       0.00000000
Si      -2.71505430      -2.71474479       0.00020637       0.00000000
Si       2.71489140       2.71492175      -0.00041275       0.00000000
