10
Lattice="16.28999089631971 0.0 0.0 0.0 16.28999089631971 0.0 0.0 0.0 34.395419527814205" Properties=species:S:1:pos:R:3:initial_magmoms:R:1 pbc="T T T"
Si      -1.23136110       1.16890524       1.57228430       0.00000000
Si       1.34789976       1.36580247      -1.34764769       0.00000000
Si      -1.36713825      -1.35068535      -1.34465528       0.00000000
Si       1.36259334      -1.27646811       1.42170107       0.00000000
Si       0.43144065       2.16797094       2.83559437       0.00000000
Si      -0.17746326      -2.30866767       2.82228333       0.00000000
Si      -1.95768333      -0.72117459       3.07299168       0.00000000
Si       2.70443322       0.00752598      -2.70557961       0.00000000
Si      -0.00814500      -2.70651834      -2.70592356       0.00000000
Si       2.70689301      -2.70987408       0.03212534       0.00000000
