10
Lattice="16.28999089631971 0.0 0.0 0.0 16.28999089631971 0.0 0.0 0.0 34.395419527814205" Properties=species:S:1:pos:R:3:initial_magmoms:R:1 pbc="T T T"
Si       0.87203628      -2.10398382       0.41797337       0.00000000
Si       1.94836545       1.23377202      -0.34103078       0.00000000
Si      -0.79733034       1.00971936       2.05261660       0.00000000
Si      -0.62045352      -0.26314866      -2.36967375       0.00000000
Si       0.56887938       3.09597219      -0.84791636       0.00000000
Si      -1.31660667      -2.84255613       1.20507859       0.00000000
Si       1.71277947      -2.75002893      -1.70178312       0.00000000
Si      -3.30854787      -1.78323372       0.30787357       0.00000000
Si       1.07926137       0.92548377      -3.51290935       0.00000000
Si       2.71357191      -1.81737756       1.94489008       0.00000000
