10
Lattice="16.28999089631971 0.0 0.0 0.0 16.28999089631971 0.0 0.0 0.0 34.395419527814205" Properties=species:S:1:pos:R:3:initial_magmoms:R:1 pbc="T T T"
Si       1.79486219      -1.56409154      -0.10731377       0.00000000
Si      -0.77416596      -0.31116995       2.28595525       0.00000000
Si       0.81291533       1.94237073      -1.29732716       0.00000000
Si      -1.88299368      -0.82995011      -1.38699607       0.00000000
Si       2.74278707      -0.39699544       2.17898544       0.00000000
Si       2.13290413       0.60177378      -2.87470198       0.00000000
Si      -0.58417569      -2.13064145      -2.88171865       0.00000000
Si       0.74077146      -3.39020054      -1.31545355       0.00000000
Si       3.49287641      -0.72054254      -1.45943286       0.00000000
Si      -2.85733116      -2.68031492      -0.07068263       0.00000000
