10
Lattice="16.28999089631971 0.0 0.0 0.0 16.28999089631971 0.0 0.0 0.0 34.395419527814205" Properties=species:S:1:pos:R:3:initial_magmoms:R:1 pbc="T T T"
Si       1.43967762       0.78855329       1.71096671       0.00000000
Si      -1.86414615       1.43324633      -0.51111622       0.00000000
Si      -0.24819444      -2.39886933      -0.17803079       0.00000000
Si       1.26656379       0.38816138      -2.26091538       0.00000000
Si      -0.08910630       0.90377246       3.45110074       0.00000000
Si       3.18862808      -0.77830362      -1.46720623       0.00000000
Si      -3.36771315      -0.03976226      -1.62841765       0.00000000
Si      -2.37115611      -2.92689339       0.61533440       0.00000000
Si      -0.06361245      -1.12279965      -3.70545501       0.00000000
Si      -2.00746557      -0.46014526       3.29790346       0.00000000
