10
Lattice="16.28999089631971 0.0 0.0 0.0 16.28999089631971 0.0 0.0 0.0 34.395419527814205" Properties=species:S:1:pos:R:3:initial_magmoms:R:1 pbc="T T T"
Si      -0.47527704      -0.14899811       2.27505190       0.00000000
Si       0.03510495      -2.31948653      -0.38994109       0.00000000
Si       1.91835927       1.36391772       0.15319728       0.00000000
Si      -1.83386304       0.86951622      -1.24535565       0.00000000
Si       0.36996219       3.10641015      -0.09138868       0.00000000
Si       2.02069305      -2.55416027       0.81338334       0.00000000
Si      -2.93182533       1.76720925       0.60491258       0.00000000
Si       0.90420903      -2.01119828       2.78193748       0.00000000
Si      -1.90726578      -0.74584905      -2.95546247       0.00000000
Si      -2.80987839       0.11436069       2.28743426       0.00000000
