10
Lattice="16.28999089631971 0.0 0.0 0.0 16.28999089631971 0.0 0.0 0.0 34.395419527814205" Properties=species:S:1:pos:R:3:initial_magmoms:R:1 pbc="T T T"
Si      -1.60197489       1.67389524      -0.29731417       0.00000000
Si      -0.56488833      -1.32098705      -1.84768857       0.00000000
Si       2.33991189      -0.13942611      -0.13713461       0.00000000
Si      -0.51215760      -1.63280697       1.67123997       0.00000000
Si       2.42815482      -2.45328119       0.20293309       0.00000000
Si       0.81459774      -3.18318722      -1.34080299       0.00000000
Si      -2.89948968      -1.05762825      -1.83530622       0.00000000
Si      -3.60970110       0.43767972      -0.20926185       0.00000000
Si      -1.48094019       2.18569446      -2.62629812       0.00000000
Si       0.38542140       1.01467152       3.70961686       0.00000000
