10
Lattice="16.28999089631971 0.0 0.0 0.0 16.28999089631971 0.0 0.0 0.0 34.395419527814205" Properties=species:S:1:pos:R:3:initial_magmoms:R:1 pbc="T T T"
Si      -1.35785362      -1.34941473      -1.37516404       0.00000000
Si      -1.35736492       1.31492880       1.41777999       0.00000000
Si       1.35494356       1.36583505      -1.37574876       0.00000000
Si       1.33863727      -1.33463970       1.52987472       0.00000000
Si       2.70189850      -2.69830818       0.00020637       0.00000000
Si      -2.71632559      -2.70749574       0.02287297       0.00000000
Si      -2.71661881       2.72187981       0.00127263       0.00000000
Si      -0.00223010      -2.70650205      -2.73560683       0.00000000
Si       2.71240555       2.73250089      -0.01241675       0.00000000
Si       2.71310602       0.00949707      -2.73536606       0.00000000
