10
Lattice="16.28999089631971 0.0 0.0 0.0 16.28999089631971 0.0 0.0 0.0 34.395419527814205" Properties=species:S:1:pos:R:3:initial_magmoms:R:1 pbc="T T T"
Si       1.35736492      -1.31492880      -1.41777999       0.00000000
Si      -1.33162605      -1.09755504       1.62993105       0.00000000
Si       1.44339404       1.42835607       1.29997561       0.00000000
Si      -1.35925389       1.40695101      -1.41650735       0.00000000
Si      -0.32887881       2.48021766       2.66406431       0.00000000
Si      -2.05758990       0.84507633       2.94545340       0.00000000
Si      -2.66176971      -2.55834450       0.12323886       0.00000000
Si       2.69600219      -2.64956850       0.11209473       0.00000000
Si      -0.00048870      -2.66434353      -2.79294402       0.00000000
Si       2.71230848       0.05090625      -2.79352874       0.00000000
