10
Lattice="16.28999089631971 0.0 0.0 0.0 16.28999089631971 0.0 0.0 0.0 34.395419527814205" Properties=species:S:1:pos:R:3:initial_magmoms:R:1 pbc="T T T"
Si      -1.89934884       0.21178629      -1.37423536       0.00000000
Si       0.75518811       2.12890752       0.68832152       0.00000000
Si       1.51188372      -1.44976113      -1.10020690       0.00000000
Si      -0.97016724      -0.66251430       2.10658304       0.00000000
Si       2.36628770      -2.56626144       0.79556650       0.00000000
Si      -3.56363298       0.76579290       0.28414072       0.00000000
Si       0.85669110       1.80900450       3.06652534       0.00000000
Si       0.19935702      -1.48385610      -3.35427758       0.00000000
Si      -2.63511927       0.93186945       2.53195143       0.00000000
Si      -1.97084565      -1.87637994      -2.61264313       0.00000000
