10
Lattice="16.28999089631971 0.0 0.0 0.0 16.28999089631971 0.0 0.0 0.0 34.395419527814205" Properties=species:S:1:pos:R:3:initial_magmoms:R:1 pbc="T T T"
Si      -1.20086622      -1.90733094       0.34732514       0.00000000
Si       1.59816303       0.20167020       1.64300132       0.00000000
Si      -1.66495203       1.59438375       0.42536839       0.00000000
Si       0.97016724       0.66251430      -2.10658304       0.00000000
Si       1.82685834       2.47151880       0.95994230       0.00000000
Si      -2.59346574       1.42830720      -1.82244232       0.00000000
Si      -0.29507706       3.06120051       1.77862253       0.00000000
Si       1.72535535       2.79142182      -1.41826152       0.00000000
Si      -2.57328243      -2.15353800      -1.56877596       0.00000000
Si      -0.92918160       0.87430059      -3.48081840       0.00000000
