10
Lattice="16.28999089631971 0.0 0.0 0.0 16.28999089631971 0.0 0.0 0.0 34.395419527814205" Properties=species:S:1:pos:R:3:initial_magmoms:R:1 pbc="T T T"
Si       1.20086622       1.90733094      -0.34732514       0.00000000
Si       1.54839708      -1.74249243       0.24458596       0.00000000
Si      -1.37241621      -0.24620706      -1.91610110       0.00000000
Si      -1.76129109       0.25127325       1.58783103       0.00000000
Si      -0.36996219      -3.10641015       0.09138868       0.00000000
Si      -2.20382523      -2.23689393      -1.15396697       0.00000000
Si      -0.46408581       3.50171469       0.07804325       0.00000000
Si      -3.30178752      -1.33920090       0.69630126       0.00000000
Si      -2.02874031       2.59757082       1.62676667       0.00000000
Si       2.79902925       2.10900114       1.29567618       0.00000000
