10
Lattice="16.28999089631971 0.0 0.0 0.0 16.28999089631971 0.0 0.0 0.0 34.395419527814205" Properties=species:S:1:pos:R:3:initial_magmoms:R:1 pbc="T T T"
Si       1.72871109       1.63514133      -0.28138908       0.00000000
Si       0.72596385      -1.94263137      -1.31552235       0.00000000
Si      -0.88979238      -0.08897598       2.30690208       0.00000000
Si       1.89827370      -1.39494528       1.00902459       0.00000000
Si      -2.18602026       0.96308109      -1.57180276       0.00000000
Si       0.45527292       1.84811679       2.94335528       0.00000000
Si      -0.64596366       1.99528065      -2.97238503       0.00000000
Si       2.05758990      -0.84507633      -2.94545340       0.00000000
Si       0.47573316       3.49529643      -1.34671901       0.00000000
Si       3.50098394       0.58327974      -1.64547779       0.00000000
