10
Lattice="16.28999089631971 0.0 0.0 0.0 16.28999089631971 0.0 0.0 0.0 34.395419527814205" Properties=species:S:1:pos:R:3:initial_magmoms:R:1 pbc="T T T"
Si      -0.01469358      -0.05242122      -2.36269148       0.00000000
Si       1.46903220       1.49369526       1.13133477       0.00000000
Si       1.38841299      -1.91384694       0.63848253       0.00000000
Si      -2.40547914       0.50873670       0.20413693       0.00000000
Si       1.67856088       3.29145966      -0.32132219       0.00000000
Si       3.58610408      -1.29137346      -0.14642138       0.00000000
Si      -1.35975888      -1.98951399      -2.99914468       0.00000000
Si       0.69998130       1.79242128       3.35678845       0.00000000
Si       2.16248188       0.39682440      -3.22426282       0.00000000
Si       3.71380139       0.67888575       1.12748248       0.00000000
