10
Lattice="16.28999089631971 0.0 0.0 0.0 16.28999089631971 0.0 0.0 0.0 34.395419527814205" Properties=species:S:1:pos:R:3:initial_magmoms:R:1 pbc="T T T"
Si       2.02312745       0.21623346       1.16442318       0.00000000
Si      -2.12193540       0.58968171       0.81868023       0.00000000
Si      -0.22869531      -2.26984860       0.68305902       0.00000000
Si      -0.10150299       0.31990302      -2.37820382       0.00000000
Si      -1.82685834      -2.47151880      -0.95994230       0.00000000
Si       2.60512028       2.32938855       0.36644900       0.00000000
Si      -0.56114163      -1.79517429       3.03044453       0.00000000
Si       3.30884828      -1.43215164       0.00536569       0.00000000
Si      -3.49181037      -0.87713505      -0.53457391       0.00000000
Si      -0.85669110      -1.80900450      -3.06652534       0.00000000
