10
Lattice="16.28999089631971 0.0 0.0 0.0 16.28999089631971 0.0 0.0 0.0 34.395419527814205" Properties=species:S:1:pos:R:3:initial_magmoms:R:1 pbc="T T T"
Si       0.58705902      -2.22439950       0.04794724       0.00000000
Si      -1.11648402       0.54296199       1.96855415       0.00000000
Si      -1.98558810       0.23467374      -1.20332442       0.00000000
Si       1.95237998       1.33113735       0.18862459       0.00000000
Si      -2.02069305       2.55416027      -0.81338334       0.00000000
Si       1.35610992      -2.52312552      -2.17750644       0.00000000
Si       3.38352164      -0.15982119       1.35370128       0.00000000
Si      -1.35207000      -3.44083896       0.60780180       0.00000000
Si      -2.49597009       2.40516216       1.46166857       0.00000000
Si       0.49707306       1.27286802       3.51229023       0.00000000
