10
Lattice="16.28999089631971 0.0 0.0 0.0 16.28999089631971 0.0 0.0 0.0 34.395419527814205" Properties=species:S:1:pos:R:3:initial_magmoms:R:1 pbc="T T T"
Si      -1.04448222      -1.63183446       1.33924973       0.00000000
Si       1.69572384       1.07129556       1.33974159       0.00000000
Si       1.15957107      -1.77349230      -1.30197054       0.00000000
Si      -1.69412742       2.13793218      -0.28379677       0.00000000
Si       0.52940871      -0.22200012      -3.04513138       0.00000000
Si      -1.82104281       0.14349861      -2.85884568       0.00000000
Si      -2.30101137      -0.16171083       2.71411453       0.00000000
Si       0.43360722       2.54249412       2.72973350       0.00000000
Si      -2.90204721      -2.45871486       0.01510418       0.00000000
Si      -3.55289787       1.21925763       1.17354627       0.00000000
