10
Lattice="16.28999089631971 0.0 0.0 0.0 16.28999089631971 0.0 0.0 0.0 34.395419527814205" Properties=species:S:1:pos:R:3:initial_magmoms:R:1 pbc="T T T"
Si       1.35332433       1.35863487       1.38558242       0.00000000
Si      -1.36248745      -1.35594702       1.38589197       0.00000000
Si      -1.35733656       1.44075276      -1.40260472       0.00000000
Si       1.31167080      -1.49861484      -1.46917709       0.00000000
Si       2.71423980       2.70466128      -0.00881899       0.00000000
Si       2.71078632      -2.71140534       0.01614522       0.00000000
Si      -2.72764536       2.70495450       0.03286140       0.00000000
Si      -2.72732786      -2.70837540       0.00491855       0.00000000
Si       2.70967860       0.00065160       2.74674751       0.00000000
Si      -0.00557118      -2.71384884       2.74691949       0.00000000
