10
Lattice="16.28999089631971 0.0 0.0 0.0 16.28999089631971 0.0 0.0 0.0 34.395419527814205" Properties=species:S:1:pos:R:3:initial_magmoms:R:1 pbc="T T T"
Si       1.35957969       1.34677575      -1.36185300       0.00000000
Si      -1.35746199      -1.36666584      -1.36333201       0.00000000
Si      -1.34876313       1.44274014       1.30781777       0.00000000
Si       1.40978547      -1.34226342       1.37715897       0.00000000
Si      -2.62637643       0.01078398       2.73017235       0.00000000
Si      -0.00058644       2.70690930      -2.72315568       0.00000000
Si       2.72763018       2.70457983       0.02872019       0.00000000
Si      -2.71509340      -0.00773775      -2.72301809       0.00000000
Si       2.71559187      -0.00773775      -2.72401556       0.00000000
Si      -2.71240555      -2.73250089       0.01241675       0.00000000
