10
Lattice="16.28999089631971 0.0 0.0 0.0 16.28999089631971 0.0 0.0 0.0 34.395419527814205" Properties=species:S:1:pos:R:3:initial_magmoms:R:1 pbc="T T T"
Si       1.35618974       1.35693094      -1.35731280       0.00000000
Si      -1.35802213      -1.35746078      -1.35583380       0.00000000
Si       1.35705311      -1.35728509       1.35714083       0.00000000
Si      -1.35736491       1.35735448       1.35731280       0.00000000
Si       0.00063531      -2.71376806       2.71448803       0.00000000
Si      -2.71296171      -0.00380534      -2.71534791       0.00000000
Si      -0.00154103      -2.71117795      -2.71768680       0.00000000
Si       2.71503638       0.00046101       2.71383451       0.00000000
Si       0.00018896       2.71411600       2.71476319       0.00000000
Si       2.71466171      -2.71446853      -0.00017198       0.00000000
