10
Lattice="16.28999089631971 0.0 0.0 0.0 16.28999089631971 0.0 0.0 0.0 34.395419527814205" Properties=species:S:1:pos:R:3:initial_magmoms:R:1 pbc="T T T"
Si      -1.35692442      -1.35760860      -1.35765676       0.00000000
Si       1.35762489       1.35785295      -1.35745039       0.00000000
Si      -1.35961227       1.35902583       1.35961730       0.00000000
Si       1.36016613      -1.36013355       1.36130267       0.00000000
Si      -2.71450696      -2.71464705       0.00013758       0.00000000
Si      -2.71360286       2.71619460      -0.00030956       0.00000000
Si       2.71476108       2.71518462       0.00068791       0.00000000
Si       0.00053757      -2.71511946      -2.71486638       0.00000000
Si       0.00058644      -2.70690930       2.72315568       0.00000000
Si      -2.71511131       0.00024435      -2.71507275       0.00000000
