10
Lattice="16.28999089631971 0.0 0.0 0.0 16.28999089631971 0.0 0.0 0.0 34.395419527814205" Properties=species:S:1:pos:R:3:initial_magmoms:R:1 pbc="T T T"
Si      -0.27456795      -2.00119392      -1.15902310       0.00000000
Si      -1.77750616       1.38697947      -0.71587227       0.00000000
Si       1.73636739       1.49231061      -0.67748696       0.00000000
Si      -0.35388396      -0.30121839       2.36196917       0.00000000
Si       0.84598857      -1.32866127      -3.17297922       0.00000000
Si       2.06149950       0.82446948      -2.85850173       0.00000000
Si      -2.51168084      -2.30532822      -1.78863161       0.00000000
Si       0.17293464      -3.86490024       0.29772692       0.00000000
Si      -1.37555366       3.63744297      -0.00209812       0.00000000
Si       1.12687704       3.75652287      -0.06548892       0.00000000
