10
Lattice="16.28999089631971 0.0 0.0 0.0 16.28999089631971 0.0 0.0 0.0 34.395419527814205" Properties=species:S:1:pos:R:3:initial_magmoms:R:1 pbc="T T T"
Si      -1.35575877       1.35807336      -1.36003004       0.00000000
Si       1.35927176      -1.35611824      -1.36064916       0.00000000
Si      -1.35786018      -1.36232473       1.36893846       0.00000000
Si       1.35921963       1.37009049       1.37595513       0.00000000
Si       2.71326235      -2.71328701      -0.00072230       0.00000000
Si       2.71409314       2.71428753      -0.00240768       0.00000000
Si      -2.71455654      -2.71416667      -0.00326757       0.00000000
Si      -2.71509411       2.71453188       0.00247647       0.00000000
Si      -2.71374204      -0.00036893      -2.71806515       0.00000000
Si       0.00053116      -2.71432957      -2.71754922       0.00000000
