10
Lattice="16.28999089631971 0.0 0.0 0.0 16.28999089631971 0.0 0.0 0.0 34.395419527814205" Properties=species:S:1:pos:R:3:initial_magmoms:R:1 pbc="T T T"
Si       0.12769731       1.97025921       1.27390386       0.00000000
Si       1.65944601      -1.28588373       1.10247700       0.00000000
Si       0.35388396       0.30121839      -2.36196917       0.00000000
Si      -2.19769109      -0.62247348       0.78490391       0.00000000
Si       2.14216758      -2.90717856      -0.49457201       0.00000000
Si      -2.11707188       2.78506872       1.27775615       0.00000000
Si      -1.42362220       1.68819786      -3.07784144       0.00000000
Si      -3.58610408       1.29137346       0.14642138       0.00000000
Si       0.50893218       1.38701205       3.52955674       0.00000000
Si      -2.09618810      -0.94237650       3.16310773       0.00000000
