10
Lattice="16.28999089631971 0.0 0.0 0.0 16.28999089631971 0.0 0.0 0.0 34.395419527814205" Properties=species:S:1:pos:R:3:initial_magmoms:R:1 pbc="T T T"
Si      -0.89565026       1.74395853       1.21484690       0.00000000
Si      -0.30814653       0.87262272      -2.15886411       0.00000000
Si       2.31002951      -0.42578802      -0.15818462       0.00000000
Si      -0.88770237      -1.84096548       1.17412270       0.00000000
Si      -3.25543988       0.80953155       0.85372919       0.00000000
Si      -0.09405683      -3.50174727      -0.34233780       0.00000000
Si       1.07795165      -0.60346305      -3.32645167       0.00000000
Si      -0.23186372       3.73083354       0.12330765       0.00000000
Si       0.49595882      -2.71661814      -2.52847749       0.00000000
Si       0.47935931       3.15789795      -2.04704454       0.00000000
