10
Lattice="16.290000149 0.0 0.0 0.0 16.290000149 0.0 0.0 0.0 29.1751946751" Properties=species:S:1:pos:R:3:initial_magmoms:R:1 pbc="T T T"
Si      -1.33507954      -1.36459539       1.36890013       0.00000000
Si       1.35052246      -1.34884133      -1.37327641       0.00000000
Si       1.36045936       1.34540740       1.36761643       0.00000000
Si      -1.36888129       1.34436484      -1.36434880       0.00000000
Si      -2.69693984      -2.70682787      -0.00869421       0.00000000
Si       2.71394660       2.69239493      -0.00755638       0.00000000
Si      -0.00985545       2.73241946       2.67848710       0.00000000
Si       2.72461655      -2.69674436      -0.03708167       0.00000000
Si      -2.76035682      -0.00285075       2.66760475       0.00000000
Si      -0.01888011       2.70873380      -2.72157886       0.00000000
