10
Lattice="16.290000149 0.0 0.0 0.0 16.290000149 0.0 0.0 0.0 29.1751946751" Properties=species:S:1:pos:R:3:initial_magmoms:R:1 pbc="T T T"
H        0.44509167       1.28702404      -0.66102239       0.00000000
Si      -0.82614736       0.96860341       1.94481848       0.00000000
Si      -1.87826960      -0.70244110      -1.27262199       0.00000000
Si       2.01184760      -1.35925390      -0.08807991       0.00000000
H        0.96765859      -0.24542514      -2.48703947       0.00000000
H       -0.64141876      -2.65613339      -1.07075882       0.00000000
Si       3.16537346       0.69851521      -0.68124080       0.00000000
Si      -2.32222097       2.29008080       0.64967323       0.00000000
Si       0.79847065      -2.94547638      -1.51267549       0.00000000
Si       2.00200844       0.86086135      -2.70066025       0.00000000
