10
Lattice="16.290000149 0.0 0.0 0.0 16.290000149 0.0 0.0 0.0 29.1751946751" Properties=species:S:1:pos:R:3:initial_magmoms:R:1 pbc="T T T"
Si       1.36840888       1.34930071       1.33826618       0.00000000
Si       1.44277273      -1.33039454      -1.28344599       0.00000000
Si      -1.34957764      -1.38684590       1.33581546       0.00000000
Si      -1.37787337       1.34157925      -1.35807614       0.00000000
Si       0.11420919      -2.66138773      -2.62217314       0.00000000
Si       0.03266145       2.74054818      -2.61639937       0.00000000
Si       0.00291591       2.69648372       2.68869842       0.00000000
Si       2.69358410      -0.03381804       2.69914314       0.00000000
Si      -2.71259453      -0.02381598       2.68087946       0.00000000
Si      -2.70557354       2.70220151       0.00589339       0.00000000
