10
Lattice="16.290000149 0.0 0.0 0.0 16.290000149 0.0 0.0 0.0 29.1751946751" Properties=species:S:1:pos:R:3:initial_magmoms:R:1 pbc="T T T"
Si       1.14824953      -0.08042373      -0.98405014       0.00000000
H        0.71377894       0.88811452       1.62765494       0.00000000
H       -0.91864198       1.74884555       0.46554858       0.00000000
Si      -2.27507771       1.17289630       0.19416092       0.00000000
Si      -2.72280836      -1.03518064       0.80491445       0.00000000
Si       0.17710488       0.63716707       3.01443946       0.00000000
Si       1.37228590      -2.21772062      -1.89224478       0.00000000
Si       3.21044952       0.59184829      -0.05732926       0.00000000
Si       0.92527201       1.43273809      -2.81896566       0.00000000
Si      -1.63623277      -0.94863187       2.89946002       0.00000000
