10
Lattice="16.290000149 0.0 0.0 0.0 16.290000149 0.0 0.0 0.0 29.1751946751" Properties=species:S:1:pos:R:3:initial_magmoms:R:1 pbc="T T T"
Si      -1.40100517       1.41959206      -1.22748797       0.00000000
Si      -1.33271749      -1.36145305       1.38498442       0.00000000
Si       1.19653309      -1.50724855      -1.40309346       0.00000000
Si       1.30758202       1.44588412       1.36928525       0.00000000
H        3.21219255       1.72009370      -0.51149951       0.00000000
Si      -0.00351864       2.65398311      -2.64916603       0.00000000
Si       2.51216237      -0.16667928      -2.82176648       0.00000000
Si       2.68196933      -2.68317479       0.04312094       0.00000000
Si      -2.89035102       0.12921228      -2.52000744       0.00000000
Si       2.73202851       0.07887618       2.70512989       0.00000000
