10
Lattice="16.290000149 0.0 0.0 0.0 16.290000149 0.0 0.0 0.0 29.1751946751" Properties=species:S:1:pos:R:3:initial_magmoms:R:1 pbc="T T T"
Si       1.03434985       1.10628649      -0.21362078       0.00000000
H       -0.52256691       1.53244918       1.82601708       0.00000000
Si      -2.21573324      -0.78462415      -1.12251562       0.00000000
Si      -0.96765859       0.24542514       2.48703947       0.00000000
Si       1.04418901      -1.11382876       2.39895956       0.00000000
Si      -0.16918794      -2.70005123       0.97436398       0.00000000
Si      -0.53779806      -2.46400913      -1.38127042       0.00000000
Si       2.19771487       0.94394035       1.80579867       0.00000000
Si       2.52020312       0.03000618      -1.64136728       0.00000000
Si      -0.22421556       2.74714563      -1.36992127       0.00000000
