10
Lattice="16.290000149 0.0 0.0 0.0 16.290000149 0.0 0.0 0.0 29.1751946751" Properties=species:S:1:pos:R:3:initial_magmoms:R:1 pbc="T T T"
Si      -1.33229395       1.36639381      -1.37208023       0.00000000
Si       1.37086867       1.37177440       1.33018465       0.00000000
Si       1.37005743      -1.33967332      -1.38010341       0.00000000
Si      -1.37855755      -1.32706486       1.38967287       0.00000000
Si      -2.63625959      -2.69513165      -0.06573171       0.00000000
Si       0.06015377      -2.67656105       2.67667824       0.00000000
Si      -0.02552643       2.70918992       2.67819535       0.00000000
Si      -2.70322778       2.70609482      -0.00641854       0.00000000
Si      -2.66434355       0.01150074      -2.75539291       0.00000000
Si       2.77684230       0.03368772       2.66343270       0.00000000
