10
Lattice="16.290000149 0.0 0.0 0.0 16.290000149 0.0 0.0 0.0 29.1751946751" Properties=species:S:1:pos:R:3:initial_magmoms:R:1 pbc="T T T"
Si      -2.30765771      -0.08548829       0.35943840       0.00000000
H       -0.90650593       1.56858040      -1.49371162       0.00000000
Si       0.97427233      -0.40217404      -2.15196236       0.00000000
Si       1.02387538       2.15018228       0.39086008       0.00000000
Si       0.05761773      -2.06726618       1.28863917       0.00000000
H       -2.92118799       1.21942054      -0.08253663       0.00000000
Si       2.84262132       1.26236098       1.54039193       0.00000000
Si       2.89188228      -1.46264002      -1.37178848       0.00000000
Si       3.52976610      -0.78853701       0.77565173       0.00000000
Si      -3.15522642      -1.74630431      -1.03644879       0.00000000
