10
Lattice="16.290000149 0.0 0.0 0.0 16.290000149 0.0 0.0 0.0 29.1751946751" Properties=species:S:1:pos:R:3:initial_magmoms:R:1 pbc="T T T"
Si      -1.42157944       1.37655388      -1.24787521       0.00000000
Si      -1.20179476      -1.44068761       1.40441548       0.00000000
Si       1.46158768       1.30021894       1.32596921       0.00000000
Si       0.88044193      -1.49664376      -1.64424941       0.00000000
H        0.80847271      -2.59191821      -0.52587667       0.00000000
Si       2.45711846      -0.09716985      -2.85361958       0.00000000
Si      -2.62690913      -0.08669538       2.71053935       0.00000000
Si       0.09612729       2.63927324       2.71685286       0.00000000
Si      -0.09604584       2.79088428      -2.57902264       0.00000000
Si       2.79430518       2.66167199      -0.05901520       0.00000000
