10
Lattice="16.290000149 0.0 0.0 0.0 16.290000149 0.0 0.0 0.0 29.1751946751" Properties=species:S:1:pos:R:3:initial_magmoms:R:1 pbc="T T T"
Si       1.34836730      -1.33574743       1.37540620       0.00000000
Si      -1.27235229       1.36096435       1.42249497       0.00000000
Si       1.34201420       1.36850662      -1.36315262       0.00000000
Si      -1.37906743      -1.36155079      -1.33412330       0.00000000
Si       2.66111325       0.13129740       2.65538034       0.00000000
Si       0.01732767      -2.69896632      -2.68213400       0.00000000
Si      -2.66348507       2.71709057       0.07235448       0.00000000
Si      -2.68317968       0.01901043      -2.70912105       0.00000000
Si      -0.06042124      -2.63135468       2.76335774       0.00000000
Si       2.72008305       0.02265939      -2.72055773       0.00000000
