10
Lattice="16.290000149 0.0 0.0 0.0 16.290000149 0.0 0.0 0.0 29.1751946751" Properties=species:S:1:pos:R:3:initial_magmoms:R:1 pbc="T T T"
H       -0.15418485       0.79389316       1.27836951       0.00000000
Si       1.06966657       1.16895412      -1.71156280       0.00000000
Si      -2.20771856       0.08298126      -0.80961165       0.00000000
Si       0.85970476      -2.07989093       0.78869304       0.00000000
H       -1.45409428      -1.87724333       1.71237970       0.00000000
H       -1.54943965       2.83346634       0.81311268       0.00000000
Si      -2.73409733      -1.91251118       0.88984344       0.00000000
Si       1.95268232      -0.61139629      -2.99013653       0.00000000
Si       0.70716520      -1.67102822       3.14765340       0.00000000
Si      -2.74918188       2.46523088      -0.07142088       0.00000000
