10
Lattice="16.290000149 0.0 0.0 0.0 16.290000149 0.0 0.0 0.0 29.1751946751" Properties=species:S:1:pos:R:3:initial_magmoms:R:1 pbc="T T T"
Si       1.37984446       1.31838229      -1.36376530       0.00000000
Si      -1.37231848      -1.32719518      -1.36487396       0.00000000
Si       1.35537688      -1.36985869       1.34022092       0.00000000
Si      -1.36922338       1.37899738       1.32338683       0.00000000
Si      -0.05235606       2.64769517      -2.63819615       0.00000000
Si       0.04409703      -2.65758320      -2.67297299       0.00000000
Si       2.72574056      -0.00866628       2.66815908       0.00000000
Si      -2.72947098       0.01661580       2.66789650       0.00000000
Si      -0.01479132       2.73344574       2.68309678       0.00000000
Si      -0.00070047      -2.72601749       2.69774273       0.00000000
