10
Lattice="16.290000149 0.0 0.0 0.0 16.290000149 0.0 0.0 0.0 29.1751946751" Properties=species:S:1:pos:R:3:initial_magmoms:R:1 pbc="T T T"
Si      -1.43220052       1.32931288      -1.27443085       0.00000000
Si      -1.37984446      -1.31838229       1.36376530       0.00000000
Si       1.33517728       1.40396995       1.33954989       0.00000000
Si       1.34392501      -1.28161576      -1.46299014       0.00000000
Si      -0.07653042       2.66243762      -2.59803358       0.00000000
Si       2.68413590      -2.61602741      -0.03845291       0.00000000
Si      -0.02446758      -2.68824098       2.70398622       0.00000000
Si      -2.75216295      -2.64557747      -0.00110866       0.00000000
Si       2.69755886       0.06444324       2.70448220       0.00000000
Si      -2.74906785       0.06061509       2.68715213       0.00000000
