10
Lattice="16.290000149 0.0 0.0 0.0 16.290000149 0.0 0.0 0.0 29.1751946751" Properties=species:S:1:pos:R:3:initial_magmoms:R:1 pbc="T T T"
Si       1.34350147       1.37834578      -1.31375902       0.00000000
Si      -1.36490653       1.36917451       1.34427627       0.00000000
Si       1.54510651      -1.32455620       1.18532981       0.00000000
Si      -1.40879179      -1.32519151      -1.35632563       0.00000000
Si       2.57308697       2.81097473       0.11331646       0.00000000
Si       2.62783766      -2.74466955      -0.31264139       0.00000000
Si       2.64784178       0.03256371      -2.74564840       0.00000000
Si      -0.05686839       2.71994295      -2.67390659       0.00000000
Si      -2.71060715       0.07866441       2.71626897       0.00000000
Si      -2.78498730      -2.64541457       0.00738132       0.00000000
