10
Lattice="16.290000149 0.0 0.0 0.0 16.290000149 0.0 0.0 0.0 29.1751946751" Properties=species:S:1:pos:R:3:initial_magmoms:R:1 pbc="T T T"
Si       1.36238158      -1.33952671       1.36493231       0.00000000
Si       1.35415513       1.37336104      -1.34529740       0.00000000
Si      -1.35542575       1.35470899       1.36440715       0.00000000
Si      -1.33517728      -1.40396995      -1.33954989       0.00000000
Si       2.70539435      -2.67112019      -0.02199810       0.00000000
Si      -2.76737781      -0.07465707      -2.61398074       0.00000000
Si       0.01071882      -2.73101852       2.69237449       0.00000000
Si      -2.72249885       2.70811478       0.02418624       0.00000000
Si       0.00926901       2.71899650      -2.71259290       0.00000000
Si       2.71322984       2.71935488       0.02226067       0.00000000
