10
Lattice="16.290000149 0.0 0.0 0.0 16.290000149 0.0 0.0 0.0 29.1751946751" Properties=species:S:1:pos:R:3:initial_magmoms:R:1 pbc="T T T"
H        1.24046722       0.59526919       0.91948544       0.00000000
Si       1.16805817      -1.89397316      -0.63380193       0.00000000
Si      -1.12563901       1.30772863      -1.56180652       0.00000000
Si      -1.77961736      -0.53797725       1.41488024       0.00000000
H        0.86868055       1.23719293      -2.62480474       0.00000000
Si      -2.16539714       2.26976717       0.41793466       0.00000000
Si      -1.89428267      -0.73334323      -2.56184467       0.00000000
Si       2.38959641       1.08522352       2.04634815       0.00000000
Si      -0.39809502      -2.59660973      -2.21836510       0.00000000
Si       2.76491802      -1.19404072      -2.20039318       0.00000000
