10
Lattice="16.290000149 0.0 0.0 0.0 16.290000149 0.0 0.0 0.0 29.1751946751" Properties=species:S:1:pos:R:3:initial_magmoms:R:1 pbc="T T T"
Si      -1.32851467       1.31593879       1.41915732       0.00000000
Si      -1.43259148      -1.35169534      -1.28080155       0.00000000
Si       1.33050205      -1.38956959       1.37345146       0.00000000
Si       1.33607323       1.35770570      -1.41280588       0.00000000
Si       0.01120752      -2.53685801      -2.64402828       0.00000000
Si       2.63028116       2.64305415       0.09387119       0.00000000
Si      -2.60376919       2.69114875       0.03071564       0.00000000
Si      -2.73975159      -0.07568334       2.67586425       0.00000000
Si       2.67037085      -0.06468759       2.77456393       0.00000000
Si       2.71381628      -2.74152558       0.04913103       0.00000000
