10
Lattice="16.290000149 0.0 0.0 0.0 16.290000149 0.0 0.0 0.0 29.1751946751" Properties=species:S:1:pos:R:3:initial_magmoms:R:1 pbc="T T T"
Si      -1.38383551       1.34338744       1.33564041       0.00000000
Si      -1.36575361      -1.33939639      -1.37225528       0.00000000
Si       1.34426710       1.37197639      -1.36271499       0.00000000
Si       1.34011315      -1.36555813       1.37555208       0.00000000
Si      -2.68016114       2.64743453      -0.12504488       0.00000000
Si       2.66046979      -2.70176168      -0.03177179       0.00000000
Si       0.00433314       2.70221780       2.66518321       0.00000000
Si      -2.73323397      -0.04738761       2.68146297       0.00000000
Si       2.73157401       0.00998577       2.68744388       0.00000000
Si      -0.01938510      -2.68773599      -2.73867552       0.00000000
