10
Lattice="16.290000149 0.0 0.0 0.0 16.290000149 0.0 0.0 0.0 29.1751946751" Properties=species:S:1:pos:R:3:initial_magmoms:R:1 pbc="T T T"
Si      -1.34776116      -1.35415513       1.35737593       0.00000000
Si      -1.36828656       1.35723394      -1.34080442       0.00000000
Si       1.33102674      -1.34892604      -1.39069400       0.00000000
Si       1.31445166       1.36616086       1.39413668       0.00000000
Si       0.02921170       2.69172704      -2.67696999       0.00000000
Si       2.68067443      -2.70811478      -0.02952530       0.00000000
Si      -2.69186536       0.01070253       2.70850837       0.00000000
Si       2.68978054       2.71441901       0.04288754       0.00000000
Si      -2.71913482      -2.70164765       0.00186721       0.00000000
Si       2.70289399       0.01710450       2.72516741       0.00000000
