10
Lattice="16.290000149 0.0 0.0 0.0 16.290000149 0.0 0.0 0.0 29.1751946751" Properties=species:S:1:pos:R:3:initial_magmoms:R:1 pbc="T T T"
Si       1.34636851      -1.34833960      -1.36642024       0.00000000
Si      -1.35351982      -1.37500633       1.34264246       0.00000000
Si      -1.35537688       1.33017625      -1.38824329       0.00000000
Si       1.36575361       1.33939639       1.37225528       0.00000000
Si      -2.72668538      -0.01576872       2.66346187       0.00000000
Si      -0.01808190       2.68278383       2.70789569       0.00000000
Si       2.68420106      -2.72334593      -0.01406244       0.00000000
Si      -0.01159848      -2.71290404      -2.69949324       0.00000000
Si      -2.73448829       2.67768506      -0.06745305       0.00000000
Si       2.71002071       2.71137278       0.00954029       0.00000000
