10
Lattice="16.290000149 0.0 0.0 0.0 16.290000149 0.0 0.0 0.0 29.1751946751" Properties=species:S:1:pos:R:3:initial_magmoms:R:1 pbc="T T T"
Si      -1.28910916      -1.43912605       1.28239568       0.00000000
Si       1.30491046      -1.41011356      -1.33765350       0.00000000
Si      -1.43329195       1.62929095      -0.92482450       0.00000000
Si       1.19345428       1.14635598       1.68973975       0.00000000
Si      -0.80058835       2.03079059       2.66705042       0.00000000
Si      -2.31946796       0.18214924       2.60067685       0.00000000
Si      -0.08478945       2.65034816      -2.55717664       0.00000000
Si       2.63190430       2.57433902       0.34724317       0.00000000
Si       0.23485293      -2.43594374       2.79008222       0.00000000
Si       1.76223593      -0.58945594       3.21399780       0.00000000
