10
Lattice="16.290000149 0.0 0.0 0.0 16.290000149 0.0 0.0 0.0 29.1751946751" Properties=species:S:1:pos:R:3:initial_magmoms:R:1 pbc="T T T"
Si      -1.27525452       1.37520996      -1.38844168       0.00000000
Si       1.30056103       1.32749166       1.42522285       0.00000000
Si      -1.41123692      -1.39162213       1.25670692       0.00000000
Si       1.32851467      -1.31593879      -1.41915732       0.00000000
Si       2.64433943       2.65540034       0.07392994       0.00000000
Si       2.65901672      -2.70550838      -0.04570586       0.00000000
Si      -0.10407681      -2.66763413      -2.69995887       0.00000000
Si      -0.04597038      -2.73931014       2.62948736       0.00000000
Si      -2.71113664       2.67889052      -0.03706417       0.00000000
Si      -2.69401221      -0.04694778       2.71219903       0.00000000
