10
Lattice="16.290000149 0.0 0.0 0.0 16.290000149 0.0 0.0 0.0 29.1751946751" Properties=species:S:1:pos:R:3:initial_magmoms:R:1 pbc="T T T"
Si      -1.36358704      -1.34691911       1.35209522       0.00000000
Si      -1.36257706       1.36607941      -1.33663237       0.00000000
Si       1.35993808       1.34283358       1.36429045       0.00000000
Si       1.36301689      -1.36302992      -1.34506400       0.00000000
Si       0.01050705      -2.69482214       2.68828996       0.00000000
Si       2.71259453       0.02381598      -2.68087946       0.00000000
Si       0.00702099       2.72601749      -2.67498607       0.00000000
Si      -0.00016290       2.69431715       2.71781526       0.00000000
Si      -2.74822077       0.01883124      -2.66529991       0.00000000
Si      -2.71422353      -2.71497287       0.00040845       0.00000000
