10
Lattice="16.290000149 0.0 0.0 0.0 16.290000149 0.0 0.0 0.0 29.1751946751" Properties=species:S:1:pos:R:3:initial_magmoms:R:1 pbc="T T T"
H        1.32271543      -0.45260136       0.58633389       0.00000000
Si      -1.25586127       0.22760388       1.94747342       0.00000000
Si       0.27104931       2.02662263      -1.20665688       0.00000000
Si      -0.96752827      -1.99454762      -0.88771365       0.00000000
H        1.88669153      -0.57679633      -1.74143819       0.00000000
Si       3.07090938      -1.08885619      -0.94087085       0.00000000
H       -0.87703732      -2.81887050       1.69332830       0.00000000
Si      -1.92067247       2.75483451      -0.74151675       0.00000000
Si      -3.31806126      -0.44466813       1.02075254       0.00000000
H        1.08022249       0.17021421      -3.39406710       0.00000000
