10
Lattice="16.290000149 0.0 0.0 0.0 16.290000149 0.0 0.0 0.0 29.1751946751" Properties=species:S:1:pos:R:3:initial_magmoms:R:1 pbc="T T T"
Si      -1.19345428      -1.14635598      -1.68973975       0.00000000
Si       0.56878165      -1.73581192       1.52425805       0.00000000
Si      -1.99404263       0.88443461       0.97731067       0.00000000
Si       1.43845002       1.42798304      -1.34249658       0.00000000
H        0.47811150       2.28920277       1.97437295       0.00000000
Si      -2.48256344      -2.58548203      -0.40734407       0.00000000
Si      -2.73316880       2.21421990      -0.80809454       0.00000000
Si      -2.62674623       0.48293497      -2.61456425       0.00000000
Si      -3.51292224      -0.96420674       0.91093710       0.00000000
H       -0.75598633       0.10599577       3.76056589       0.00000000
