10
Lattice="16.290000149 0.0 0.0 0.0 16.290000149 0.0 0.0 0.0 29.1751946751" Properties=species:S:1:pos:R:3:initial_magmoms:R:1 pbc="T T T"
Si      -1.30927618      -1.34084620      -1.40422546       0.00000000
Si       1.35062020       1.32245479      -1.39082821       0.00000000
Si      -1.37355652       1.36213723       1.33409413       0.00000000
Si       1.36487395      -1.36738261       1.34310926       0.00000000
Si      -2.68560200      -2.70132185      -0.04382114       0.00000000
Si       2.70681158       2.69011433      -0.03956156       0.00000000
Si      -0.00905724       2.71557560       2.68324265       0.00000000
Si       0.11305260      -2.71487513      -2.69359110       0.00000000
Si      -2.70389893       0.00115659       2.71244702       0.00000000
Si       2.70979265      -0.01005093       2.70731219       0.00000000
