10
Lattice="16.290000149 0.0 0.0 0.0 16.290000149 0.0 0.0 0.0 29.1751946751" Properties=species:S:1:pos:R:3:initial_magmoms:R:1 pbc="T T T"
Si      -1.35032698      -1.34288245      -1.31262118       0.00000000
Si       1.39566205      -1.28285380       1.35965160       0.00000000
Si       1.38359116       1.33545421      -1.34124205       0.00000000
Si      -1.18350109       1.45132498       1.41199190       0.00000000
Si       2.27382338       0.60540157       2.43154825       0.00000000
Si       0.67196251       2.38234736       2.51863621       0.00000000
Si      -2.66066201       0.08433333      -2.60995457       0.00000000
Si       0.08734698      -2.67768506      -2.59384986       0.00000000
Si       0.02109555      -2.60480360       2.71486857       0.00000000
Si      -2.72238482      -2.59695182       0.11900562       0.00000000
