10
Lattice="16.290000149 0.0 0.0 0.0 16.290000149 0.0 0.0 0.0 29.1751946751" Properties=species:S:1:pos:R:3:initial_magmoms:R:1 pbc="T T T"
Si       1.38795688       1.27907452       1.37614784       0.00000000
Si      -1.63525212       1.17897247      -1.21660212       0.00000000
Si       1.24416505      -1.35522213      -1.48302999       0.00000000
Si      -1.33670040      -1.40559081       1.35521172       0.00000000
Si      -2.96455197      -0.80270605      -1.69851798       0.00000000
Si      -2.68458926      -2.62139057      -0.12384520       0.00000000
Si      -0.03437190       2.65310345       2.66551347       0.00000000
Si       2.60314202      -2.73903386      -0.08830981       0.00000000
Si       2.58289355      -0.12540042       2.81758334       0.00000000
Si      -2.77258253      -0.10191024       2.70658923       0.00000000
