10
Lattice="16.290000149 0.0 0.0 0.0 16.290000149 0.0 0.0 0.0 29.1751946751" Properties=species:S:1:pos:R:3:initial_magmoms:R:1 pbc="T T T"
Si       0.27446695      -0.82029925      -2.15438390       0.00000000
Si      -2.26906996       0.48384558      -0.11947242       0.00000000
Si       1.28845430       1.98581292       0.11658408       0.00000000
Si       1.02818897      -1.54380331       1.48338360       0.00000000
Si      -2.54354017       1.21681903       2.08862301       0.00000000
Si       3.35684449       1.26019278       0.95992226       0.00000000
Si       2.57775895      -0.23809464       2.66988042       0.00000000
Si       1.19666015       0.91028521      -3.43275341       0.00000000
Si       1.92523041      -2.47492343      -2.06006050       0.00000000
Si       2.38053591      -2.89729056       0.15351987       0.00000000
