10
Lattice="16.290000149 0.0 0.0 0.0 16.290000149 0.0 0.0 0.0 29.1751946751" Properties=species:S:1:pos:R:3:initial_magmoms:R:1 pbc="T T T"
Si       0.87858487      -0.86446144       0.87942789       0.00000000
H       -1.89744293      -0.44515683      -1.23848701       0.00000000
Si       0.88733260       0.96817987      -2.08386745       0.00000000
Si      -0.99994537      -0.37695060      -2.46378684       0.00000000
Si      -0.71418619       2.50863396      -1.00336412       0.00000000
Si      -1.46209267       2.17348675       1.25085730       0.00000000
Si       1.89819227      -2.36364644      -0.58831780       0.00000000
Si      -0.51890166      -2.09885249       2.30110595       0.00000000
Si       2.77746132       0.43829874       1.50459396       0.00000000
Si       2.81675280      -0.52970193      -1.76614958       0.00000000
