10
Lattice="16.290000149 0.0 0.0 0.0 16.290000149 0.0 0.0 0.0 29.1751946751" Properties=species:S:1:pos:R:3:initial_magmoms:R:1 pbc="T T T"
Si      -1.34387614      -1.34598244      -1.38862257       0.00000000
Si       1.30789153       1.34704781      -1.42307847       0.00000000
Si       1.42513066      -1.36546528       1.29639978       0.00000000
Si      -1.41881014       1.35532313       1.33566959       0.00000000
Si       0.07943004      -2.65597538       2.66839248       0.00000000
Si      -2.68051138      -2.69665151      -0.01864295       0.00000000
Si       2.60139899       2.78332083      -0.10978626       0.00000000
Si      -0.10606419       2.82236796       2.61564373       0.00000000
Si       2.68086161      -0.04744788       2.76624608       0.00000000
Si       2.73316881      -0.01469684      -2.72178309       0.00000000
