10
Lattice="16.290000149 0.0 0.0 0.0 16.290000149 0.0 0.0 0.0 29.1751946751" Properties=species:S:1:pos:R:3:initial_magmoms:R:1 pbc="T T T"
Si      -1.44287047      -1.27273771      -1.33109258       0.00000000
Si      -1.38331423       1.35195598       1.32432044       0.00000000
Si       1.32339961       1.39417966      -1.35220813       0.00000000
Si       1.36767583      -1.40936194       1.31159713       0.00000000
Si       2.62852184       2.58007538       0.19981507       0.00000000
Si      -0.15003090      -2.67208130      -2.65313094       0.00000000
Si       2.66484854       0.03262887      -2.69175889       0.00000000
Si      -2.73641052      -0.05031981       2.64102907       0.00000000
Si      -0.04344543       2.67683798       2.72543290       0.00000000
Si      -2.70260876       0.20466756      -2.69315930       0.00000000
