10
Lattice="16.290000149 0.0 0.0 0.0 16.290000149 0.0 0.0 0.0 29.1751946751" Properties=species:S:1:pos:R:3:initial_magmoms:R:1 pbc="T T T"
Si       1.34570062       1.29051010      -1.37199270       0.00000000
Si      -1.52806717       1.26439723       1.21336717       0.00000000
Si       1.03206925      -0.82813474       1.95351269       0.00000000
Si      -1.41284800      -1.39318597      -1.30039678       0.00000000
Si      -0.79949692      -2.12081141       2.58606008       0.00000000
Si      -2.45026037      -0.46618722       2.49173668       0.00000000
Si       2.60143157       2.60852750       0.09785360       0.00000000
Si      -0.07943004       2.65597538      -2.66839248       0.00000000
Si       2.71060715      -0.07866441      -2.71626897       0.00000000
Si      -0.07438014      -2.72407898      -2.70888765       0.00000000
