10
Lattice="16.290000149 0.0 0.0 0.0 16.290000149 0.0 0.0 0.0 29.1751946751" Properties=species:S:1:pos:R:3:initial_magmoms:R:1 pbc="T T T"
Si       1.32914672      -1.35923761       1.36536994       0.00000000
Si      -1.34202234      -1.36098064      -1.35454594       0.00000000
Si      -1.32035664       1.33620355       1.40732387       0.00000000
Si       1.35071468       1.36542781      -1.36391118       0.00000000
Si       2.64006820       0.07043796       2.68814409       0.00000000
Si      -2.66046979       2.70176168       0.03177179       0.00000000
Si      -2.67985489       0.01402569      -2.70690374       0.00000000
Si      -2.69604715      -2.70873380       0.01940150       0.00000000
Si       2.70721558      -2.70508484       0.00796483       0.00000000
Si       0.02381435      -2.71235018      -2.70439467       0.00000000
