10
Lattice="16.290000149 0.0 0.0 0.0 16.290000149 0.0 0.0 0.0 29.1751946751" Properties=species:S:1:pos:R:3:initial_magmoms:R:1 pbc="T T T"
Si      -1.34377840      -1.32790868       1.35129290       0.00000000
Si       1.31445640      -1.32828498      -1.39921608       0.00000000
Si      -1.19493667       1.40447494      -1.44143550       0.00000000
Si       1.43298244       1.40638087       1.23602171       0.00000000
Si       2.29648277       0.46297809      -2.55050427       0.00000000
Si       0.67730563       2.21987090      -2.63541372       0.00000000
Si      -2.64433943      -2.65540034      -0.07392994       0.00000000
Si      -2.69985575       0.06594192       2.64139084       0.00000000
Si       0.05688468       2.75196747       2.59526485       0.00000000
Si       2.70599708      -2.64410140      -0.03386948       0.00000000
