10
Lattice="16.290000149 0.0 0.0 0.0 16.290000149 0.0 0.0 0.0 29.1751946751" Properties=species:S:1:pos:R:3:initial_magmoms:R:1 pbc="T T T"
Si      -1.01960740       1.49918500       1.46774569       0.00000000
Si      -1.35060391      -1.47782881      -1.25637141       0.00000000
Si       0.91856053       1.83394451      -1.17783178       0.00000000
Si       1.49607361      -1.32147739       1.29514524       0.00000000
H       -1.89819227       2.36364644       0.58831780       0.00000000
H        2.76731265      -1.00305676      -1.31069562       0.00000000
Si       2.32222097      -2.29008080      -0.64967323       0.00000000
Si       0.44395137      -2.99252190      -1.92229523       0.00000000
Si       0.87926905       2.80194519       2.09291177       0.00000000
Si       2.48411099       2.62034426       0.40900705       0.00000000
