10
Lattice="16.290000149 0.0 0.0 0.0 16.290000149 0.0 0.0 0.0 29.1751946751" Properties=species:S:1:pos:R:3:initial_magmoms:R:1 pbc="T T T"
Si      -1.37171575       1.35933861      -1.31396324       0.00000000
Si      -1.38671884      -1.36156708       1.30375192       0.00000000
Si       1.32660874      -1.34877943      -1.38377948       0.00000000
Si       1.35713620       1.37143394       1.33604886       0.00000000
Si      -0.00625536      -2.70718625       2.64216398       0.00000000
Si      -0.02793735       2.68724729      -2.66525615       0.00000000
Si       2.67805973       0.04314589      -2.69912563       0.00000000
Si      -2.70572015       0.00759114       2.69287047       0.00000000
Si       2.73774629       0.01167993       2.66063188       0.00000000
Si      -0.00395847       2.72575685       2.67758267       0.00000000
