10
Lattice="16.290000149 0.0 0.0 0.0 16.290000149 0.0 0.0 0.0 29.1751946751" Properties=species:S:1:pos:R:3:initial_magmoms:R:1 pbc="T T T"
Si      -1.31111695      -1.35052246      -1.35648025       0.00000000
Si       1.31693248      -1.38844558       1.34707709       0.00000000
Si      -1.41641551       1.33038802       1.30809903       0.00000000
Si       1.30816846       1.28772451      -1.47078283       0.00000000
Si      -0.04409703       2.65758320       2.67297299       0.00000000
Si       2.69586470      -0.02671560       2.65430086       0.00000000
Si       2.67967244       2.69434973      -0.15378245       0.00000000
Si       2.64463265      -2.74906785      -0.01689244       0.00000000
Si      -2.76819231      -0.04456944       2.65605137       0.00000000
Si      -2.77117338       2.65559582      -0.09082238       0.00000000
