10
Lattice="16.290000149 0.0 0.0 0.0 16.290000149 0.0 0.0 0.0 29.1751946751" Properties=species:S:1:pos:R:3:initial_magmoms:R:1 pbc="T T T"
Si       1.31562928       1.34056927      -1.41867302       0.00000000
Si      -1.19653309       1.50724855       1.40309346       0.00000000
Si       1.48543624      -1.17592624       1.44621440       0.00000000
Si      -1.53371980      -1.25159329      -1.39151091       0.00000000
H        1.87214456      -2.92609128      -0.88996014       0.00000000
Si      -2.52925058       0.14579550       2.78807788       0.00000000
Si      -0.18044433       2.66204666      -2.71381826       0.00000000
Si       2.91217962       2.48166749      -0.08796321       0.00000000
Si       0.25739829      -2.61329069       2.86610402       0.00000000
Si       3.02127375      -2.43613694       0.23690258       0.00000000
