10
Lattice="16.290000149 0.0 0.0 0.0 16.290000149 0.0 0.0 0.0 29.1751946751" Properties=species:S:1:pos:R:3:initial_magmoms:R:1 pbc="T T T"
Si      -1.37893222      -1.36172998      -1.30722377       0.00000000
Si      -1.38458485       1.31444011       1.35889304       0.00000000
Si       1.32955723      -1.36744777       1.37558125       0.00000000
Si       1.32401863       1.38665368      -1.38354608       0.00000000
Si      -2.69586470       0.02671560      -2.65430086       0.00000000
Si      -0.01422117       2.67563252       2.68683120       0.00000000
Si      -0.05123205      -2.72235224      -2.67119330       0.00000000
Si       2.68752422      -0.00288333       2.70865425       0.00000000
Si       2.74748772       0.02406033      -2.65336725       0.00000000
Si       2.69505020      -2.71463078       0.02514902       0.00000000
