10
Lattice="16.290000149 0.0 0.0 0.0 16.290000149 0.0 0.0 0.0 29.1751946751" Properties=species:S:1:pos:R:3:initial_magmoms:R:1 pbc="T T T"
H        0.64444870      -0.84149254       1.07962808       0.00000000
Si      -1.43190730       1.22492656       1.28586753       0.00000000
Si      -1.44153469      -1.32893821      -1.20925347       0.00000000
Si       1.50019498       1.36376623      -1.16003492       0.00000000
Si       0.05558148       2.23757813       2.75644322       0.00000000
Si       0.07954407      -2.64584952      -2.40619501       0.00000000
Si       1.06098400      -3.50739016      -0.41878074       0.00000000
Si       0.15817590       2.71041167      -2.54369770       0.00000000
Si       2.79010236      -0.59017042       2.39105308       0.00000000
Si      -2.68218110       0.06113637      -2.58142122       0.00000000
