10
Lattice="16.290000149 0.0 0.0 0.0 16.290000149 0.0 0.0 0.0 29.1751946751" Properties=species:S:1:pos:R:3:initial_magmoms:R:1 pbc="T T T"
Si       1.35032698       1.34288245       1.31262118       0.00000000
Si      -1.31033503       1.42721578      -1.29733338       0.00000000
Si       1.43767396      -1.33480261      -1.28122867       0.00000000
Si      -1.37205784      -1.25406937       1.43162680       0.00000000
Si      -2.66141135       0.04092048      -2.62042846       0.00000000
Si       0.07014474      -2.69281847      -2.61036302       0.00000000
Si      -0.01754433      -2.61255764       2.73532038       0.00000000
Si      -2.68297931      -2.68374494       0.10885265       0.00000000
Si      -2.60929964       2.78484069       0.12061025       0.00000000
Si       0.06568128       2.75747349      -2.65292963       0.00000000
