10
Lattice="16.290000149 0.0 0.0 0.0 16.290000149 0.0 0.0 0.0 29.1751946751" Properties=species:S:1:pos:R:3:initial_magmoms:R:1 pbc="T T T"
Si       1.27821115       1.51446502      -1.26260381       0.00000000
Si       1.36572103      -1.34812783       1.37377239       0.00000000
Si      -1.38280924       1.37060803       1.34911935       0.00000000
Si      -1.16988265      -1.46963494      -1.45244039       0.00000000
Si       2.57105072       0.11512143      -2.58464217       0.00000000
Si      -2.51577712      -0.05892093      -2.77288052       0.00000000
Si      -2.65380718      -2.67201614      -0.01798067       0.00000000
Si       0.01510083      -2.67058262       2.76460060       0.00000000
Si      -0.01532889       2.73688292       2.70951783       0.00000000
Si       2.72191241       0.01953171       2.72503904       0.00000000
