10
Lattice="16.290000149 0.0 0.0 0.0 16.290000149 0.0 0.0 0.0 29.1751946751" Properties=species:S:1:pos:R:3:initial_magmoms:R:1 pbc="T T T"
Si       0.07196922       1.09527445      -1.11837274       0.00000000
Si       2.03442554      -0.31299606      -1.33079733       0.00000000
Si       0.67769659      -1.56859669       1.96537240       0.00000000
Si      -0.80847271       2.59191821       0.52587667       0.00000000
Si       2.59656086      -0.77621851       0.83325815       0.00000000
Si      -1.18153000      -2.47360394       0.82458436       0.00000000
Si      -2.80070715      -0.71671114       0.73967492       0.00000000
Si      -2.01026747       1.15123060       1.93029215       0.00000000
Si      -1.42822576       0.35743518      -2.83066491       0.00000000
Si       0.88350445      -2.10222452      -2.29433731       0.00000000
