10
Lattice="16.290000149 0.0 0.0 0.0 16.290000149 0.0 0.0 0.0 29.1751946751" Properties=species:S:1:pos:R:3:initial_magmoms:R:1 pbc="T T T"
Si       1.33972382      -1.35913987       1.36245242       0.00000000
Si      -1.35348561      -1.35246097      -1.36038098       0.00000000
Si      -1.32719355       1.34917039       1.39542039       0.00000000
Si       1.35888086       1.35299854      -1.36119788       0.00000000
Si       2.69080014       0.02715543       2.68554749       0.00000000
Si      -2.66955473       2.70695819       0.02570335       0.00000000
Si       0.03388157      -2.71430498      -2.68230905       0.00000000
Si      -2.69084576      -2.71054199       0.01945985       0.00000000
Si      -2.69791562       0.02787219      -2.71673578       0.00000000
Si       2.69954787       2.71578737       0.00309257       0.00000000
