10
Lattice="16.290000149 0.0 0.0 0.0 16.290000149 0.0 0.0 0.0 29.1751946751" Properties=species:S:1:pos:R:3:initial_magmoms:R:1 pbc="T T T"
Si      -1.45699390      -1.29899719       1.30240987       0.00000000
Si       1.37031481      -1.38701206      -1.31087067       0.00000000
Si      -1.36290286       1.32620149      -1.38077444       0.00000000
Si       1.38336310       1.35027811       1.34013339       0.00000000
Si      -0.05458779       2.72103275       2.57272702       0.00000000
Si      -0.21634749      -2.68907177       2.67457762       0.00000000
Si       2.72438849       2.68309334      -0.03308467       0.00000000
Si       2.72380205      -0.04002453      -2.68604347       0.00000000
Si       0.00985545      -2.73241946      -2.67848710       0.00000000
Si      -0.00912240       2.67750587      -2.74284758       0.00000000
