10
Lattice="16.290000149 0.0 0.0 0.0 16.290000149 0.0 0.0 0.0 29.1751946751" Properties=species:S:1:pos:R:3:initial_magmoms:R:1 pbc="T T T"
Si      -1.38873880      -1.35982405       1.31375902       0.00000000
Si      -1.36897903       1.34333857      -1.35282460       0.00000000
Si       1.35257500      -1.36899532      -1.35157007       0.00000000
Si       1.37689597       1.36546039       1.33695330       0.00000000
Si       2.77174353      -0.08490348       2.53126907       0.00000000
Si       0.00715131       2.70053993      -2.68516822       0.00000000
Si      -0.06924879      -2.80080489       2.59011543       0.00000000
Si      -2.68967450       2.71060715       0.03110076       0.00000000
Si      -2.67973760       0.00770517       2.72627607       0.00000000
Si       2.72696231      -0.02537982      -2.69447510       0.00000000
