10
Lattice="16.290000149 0.0 0.0 0.0 16.290000149 0.0 0.0 0.0 29.1751946751" Properties=species:S:1:pos:R:3:initial_magmoms:R:1 pbc="T T T"
Si       1.25586127      -0.22760388      -1.94747342       0.00000000
Si      -0.33651882       2.13043880       0.91650957       0.00000000
Si      -2.06219999      -0.67227202      -0.92672088       0.00000000
Si       1.21101490      -1.33408585       1.53560720       0.00000000
H        2.57857670      -0.68020525      -1.36113953       0.00000000
H       -2.49667058       0.29626623       1.68498419       0.00000000
H        0.37882395      -3.04647438      -0.25414512       0.00000000
H       -1.23401638       2.06223257       2.14180939       0.00000000
H       -3.21044952      -0.59184829       0.05732926       0.00000000
Si       0.28833300      -2.22215150      -2.83518707       0.00000000
