10
Lattice="16.290000149 0.0 0.0 0.0 16.290000149 0.0 0.0 0.0 29.1751946751" Properties=species:S:1:pos:R:3:initial_magmoms:R:1 pbc="T T T"
Si       1.32035664      -1.33620355      -1.40732387       0.00000000
Si       1.39146086       1.37554390       1.31189180       0.00000000
Si      -1.34011315       1.36555813      -1.37555208       0.00000000
Si      -1.35599590      -1.34685721       1.39355317       0.00000000
Si      -0.01376505       2.69410538       2.62483391       0.00000000
Si       2.64950336      -2.69544116      -0.04195393       0.00000000
Si      -2.69931818      -2.67416642      -0.01406244       0.00000000
Si      -2.72394866       2.70894557      -0.03991167       0.00000000
Si       2.67107132       0.02922426      -2.77123504       0.00000000
Si       0.03513688      -2.70298343       2.74369366       0.00000000
