10
Lattice="16.28999089631971 0.0 0.0 0.0 16.28999089631971 0.0 0.0 0.0 34.31420841018396" Properties=species:S:1:pos:R:3:initial_magmoms:R:1 pbc="T T T"
Si       1.86419502       0.85810670       1.14012453       0.00000000
Si      -1.36376133       1.30711286      -1.39655475       0.00000000
Si      -1.24776676      -1.37125215       1.47338430       0.00000000
Si       1.33387407      -1.40832819      -1.40334897       0.00000000
Si       1.10405475       1.35324777       3.28963637       0.00000000
Si       0.60158970      -2.57428494       2.64922994       0.00000000
Si       3.44657304      -1.05188670       1.02112278       0.00000000
Si      -2.90052314       2.43108539       0.01389726       0.00000000
Si      -2.67086670      -2.68789140       0.01434335       0.00000000
Si       0.00379557       2.66095358      -2.75471188       0.00000000
