10
Lattice="16.28999089631971 0.0 0.0 0.0 16.28999089631971 0.0 0.0 0.0 34.31420841018396" Properties=species:S:1:pos:R:3:initial_magmoms:R:1 pbc="T T T"
Si      -1.35586557      -1.35603391      -1.35764241       0.00000000
Si      -1.35395964       1.35907796       1.36025030       0.00000000
Si       1.35791811      -1.35681432       1.36093658       0.00000000
Si       1.35910728       1.35958295      -1.35750516       0.00000000
Si      -0.02388114      -2.71020381       2.71161321       0.00000000
Si       0.00146610      -2.71300569      -2.71528483       0.00000000
Si      -2.71361426       0.00179842      -2.71545640       0.00000000
Si       2.71689507      -2.71360842      -0.00078923       0.00000000
Si       2.71573848       2.71479692      -0.00092648       0.00000000
Si      -2.71576780      -2.71528629      -0.00137257       0.00000000
