10
Lattice="16.28999089631971 0.0 0.0 0.0 16.28999089631971 0.0 0.0 0.0 34.31420841018396" Properties=species:S:1:pos:R:3:initial_magmoms:R:1 pbc="T T T"
Si      -2.13662898      -0.09485667       0.82470815       0.00000000
Si       1.82047266      -0.31325670       1.41172164       0.00000000
Si       0.48296592       1.95849783      -1.26183709       0.00000000
Si      -0.53278074      -2.17281884      -0.86969410       0.00000000
Si       3.29993046      -0.52253433      -0.47031080       0.00000000
Si      -2.87969244      -1.47157344      -0.98193594       0.00000000
Si       2.36565009       0.61033743      -2.47525681       0.00000000
Si      -2.85047796       2.10660651       1.15017859       0.00000000
Si      -2.13811137      -1.07186571       2.92422416       0.00000000
Si       0.40184172       3.77530524       0.32035763       0.00000000
