10
Lattice="16.28999089631971 0.0 0.0 0.0 16.28999089631971 0.0 0.0 0.0 34.31420841018396" Properties=species:S:1:pos:R:3:initial_magmoms:R:1 pbc="T T T"
Si      -1.05065450       1.53826470       1.42980524       0.00000000
Si       1.28996926       1.43425305      -1.40973141       0.00000000
Si      -1.47862116      -1.33180524      -1.38125060       0.00000000
Si       0.17904502      -1.70839746       1.78224667       0.00000000
Si      -2.37129687      -0.33311421       2.05573106       0.00000000
Si      -2.52360837       2.71591767      -0.06574606       0.00000000
Si       0.05814064      -2.45577777      -2.79170261       0.00000000
Si       0.92210848      -0.33168069       3.58889075       0.00000000
Si      -2.64796623       0.23574888      -2.78308974       0.00000000
Si       2.27254948       3.11995854      -0.05150566       0.00000000
