10
Lattice="16.28999089631971 0.0 0.0 0.0 16.28999089631971 0.0 0.0 0.0 34.31420841018396" Properties=species:S:1:pos:R:3:initial_magmoms:R:1 pbc="T T T"
Si       1.95248682      -1.35977517       0.22860138       0.00000000
Si      -1.47945780       0.20927763       1.88203244       0.00000000
Si      -0.93428037       1.13287176      -2.00494600       0.00000000
Si       2.24349138       0.77273244       1.40527056       0.00000000
Si      -3.29993046       0.52253433       0.47031080       0.00000000
Si       2.01231999      -1.71171085      -2.14817359       0.00000000
Si       2.23826229       2.94330978       0.21415509       0.00000000
Si      -0.74668473       2.10743730       3.05798102       0.00000000
Si      -2.81696454       2.48103216      -0.79152629       0.00000000
Si       1.45036386       1.48423077       3.54352734       0.00000000
