10
Lattice="16.28999089631971 0.0 0.0 0.0 16.28999089631971 0.0 0.0 0.0 34.31420841018396" Properties=species:S:1:pos:R:3:initial_magmoms:R:1 pbc="T T T"
Si      -1.35539316       1.35687555       1.35980421       0.00000000
Si       1.34218197       1.35109260      -1.37918832       0.00000000
Si       1.35742941      -1.35786924       1.35980421       0.00000000
Si      -1.36604682      -1.33946154      -1.38715608       0.00000000
Si      -2.71254564      -2.71436686      -0.00528439       0.00000000
Si       2.71324611      -2.71559513      -0.00205885       0.00000000
Si       2.71378368       2.71604799      -0.00504419       0.00000000
Si      -2.71417464      -0.00083079       2.71607406       0.00000000
Si       0.00074934       2.71428867       2.71658877       0.00000000
Si      -2.71801908       2.71396287      -0.00102943       0.00000000
