10
Lattice="16.28999089631971 0.0 0.0 0.0 16.28999089631971 0.0 0.0 0.0 34.31420841018396" Properties=species:S:1:pos:R:3:initial_magmoms:R:1 pbc="T T T"
Si      -1.35723393       1.35764118       1.35777967       0.00000000
Si       1.35878148       1.35770634      -1.35626985       0.00000000
Si       1.35747828      -1.35723393       1.35836301       0.00000000
Si      -1.35944937      -1.35760860      -1.35633847       0.00000000
Si       2.71410948      -0.00201996       2.71494169       0.00000000
Si      -2.71477411       2.71461447       0.00092648       0.00000000
Si      -2.71498425      -0.00289962      -2.71452992       0.00000000
Si      -0.00089595       2.71502172       2.71452992       0.00000000
Si       2.71492398       2.71511946       0.00051471       0.00000000
Si       2.71417464       0.00083079      -2.71607406       0.00000000
