10
Lattice="16.28999089631971 0.0 0.0 0.0 16.28999089631971 0.0 0.0 0.0 34.31420841018396" Properties=species:S:1:pos:R:3:initial_magmoms:R:1 pbc="T T T"
Si       1.35286821      -1.35759231      -1.36090227       0.00000000
Si      -1.36213722       1.35944937      -1.36131404       0.00000000
Si      -1.34679204      -1.36738260       1.37459364       0.00000000
Si       1.36396170       1.34615673       1.38492223       0.00000000
Si      -0.10712304       2.61845460       2.74012833       0.00000000
Si       2.71018359      -2.71270854      -0.00494125       0.00000000
Si      -2.71329498       2.71347417      -0.00319122       0.00000000
Si       2.70948312       2.71746522       0.00401476       0.00000000
Si       2.71116099       0.00208512      -2.71734368       0.00000000
Si      -2.71682991      -2.71331127       0.00027451       0.00000000
