10
Lattice="16.28999089631971 0.0 0.0 0.0 16.28999089631971 0.0 0.0 0.0 34.31420841018396" Properties=species:S:1:pos:R:3:initial_magmoms:R:1 pbc="T T T"
Si      -1.12813137      -1.40957370      -1.59942046       0.00000000
Si       1.54880433       1.24199847      -1.45458011       0.00000000
Si       0.93428037      -1.13287176       2.00494600       0.00000000
Si      -1.88268417       1.34816040       1.21341972       0.00000000
Si      -2.36565009      -0.61033743       2.47525681       0.00000000
Si      -2.13829056      -3.27829734      -0.54394914       0.00000000
Si       0.08210160       2.58401754      -3.05413783       0.00000000
Si      -0.54517743      -0.92359413       3.88697844       0.00000000
Si      -2.62865214      -0.12952179      -3.06446641       0.00000000
Si       3.51505620       1.98959544      -0.17345842       0.00000000
