10
Lattice="16.28999089631971 0.0 0.0 0.0 16.28999089631971 0.0 0.0 0.0 34.31420841018396" Properties=species:S:1:pos:R:3:initial_magmoms:R:1 pbc="T T T"
Si       2.19704859      -0.62320653       0.48554632       0.00000000
Si      -0.73277307      -1.89815967      -1.17594858       0.00000000
Si      -1.01401992       0.16961148       2.11639861       0.00000000
Si      -0.07410321       2.05975647      -1.15553161       0.00000000
Si       0.03544704       3.41436771       0.86876761       0.00000000
Si      -1.65721428      -2.05933293       2.44396223       0.00000000
Si      -1.01118546      -3.41241291       0.65605372       0.00000000
Si       2.99017611      -1.33470486      -1.65271046       0.00000000
Si       0.74668473      -2.10743730      -3.05798102       0.00000000
Si      -3.23030700       0.95249259       1.75071189       0.00000000
