10
Lattice="16.28999089631971 0.0 0.0 0.0 16.28999089631971 0.0 0.0 0.0 34.31420841018396" Properties=species:S:1:pos:R:3:initial_magmoms:R:1 pbc="T T T"
Si      -0.74520234      -0.92232351      -2.01211768       0.00000000
Si      -0.12033423       2.27817279      -0.80700200       0.00000000
Si       2.21943105      -0.61864533       0.86924801       0.00000000
Si      -1.72880883      -0.74709198       1.60171952       0.00000000
Si       1.52679654      -0.22019193       3.12739870       0.00000000
Si       1.46851092       3.29090580       0.69455428       0.00000000
Si      -2.96148942      -0.13944240      -2.37780440       0.00000000
Si       1.41209865       2.18134503       2.81448726       0.00000000
Si      -1.38839670      -3.15126792      -1.68455406       0.00000000
Si      -0.73829538      -0.70304382       3.70569638       0.00000000
