10
Lattice="16.28999089631971 0.0 0.0 0.0 16.28999089631971 0.0 0.0 0.0 34.31420841018396" Properties=species:S:1:pos:R:3:initial_magmoms:R:1 pbc="T T T"
Si      -1.35549090       1.35583299      -1.35283842       0.00000000
Si      -1.35581670      -1.35772263       1.35733359       0.00000000
Si       1.35912357       1.35728280       1.35743653       0.00000000
Si       1.36120869      -1.36000323      -1.36124541       0.00000000
Si      -2.70373275      -0.00537570      -2.70900189       0.00000000
Si      -2.71233387       2.71480995       0.00020589       0.00000000
Si      -2.71306692      -0.00070047       2.71480443       0.00000000
Si      -2.71301805      -2.71544526       0.00085786       0.00000000
Si       0.00162900       2.71487511       2.71511326       0.00000000
Si       0.00156384      -2.71555929       2.71463286       0.00000000
