10
Lattice="16.28999089631971 0.0 0.0 0.0 16.28999089631971 0.0 0.0 0.0 34.31420841018396" Properties=species:S:1:pos:R:3:initial_magmoms:R:1 pbc="T T T"
Si       0.19784205       1.02916962      -2.17150726       0.00000000
Si       2.18839860      -1.10436426      -0.07209419       0.00000000
Si      -0.82217259       1.33053462       1.89009628       0.00000000
Si      -1.75941774      -2.04648012       0.55516989       0.00000000
Si      -0.32861817      -2.48598432      -2.49543357       0.00000000
Si       1.52627526      -3.07477008      -1.21266480       0.00000000
Si      -2.60799642      -2.32352415      -1.68153441       0.00000000
Si       0.17480799      -0.68909958      -3.84161504       0.00000000
Si      -1.76207301      -0.25054020       3.47975233       0.00000000
Si       2.68594407      -1.93363929       2.13777638       0.00000000
