10
Lattice="16.28999089631971 0.0 0.0 0.0 16.28999089631971 0.0 0.0 0.0 34.31420841018396" Properties=species:S:1:pos:R:3:initial_magmoms:R:1 pbc="T T T"
Si      -0.83965176      -1.84888242      -1.18071826       0.00000000
Si       1.94714370       1.02864429      -0.93276365       0.00000000
Si      -0.29574495      -1.36358703       1.94626867       0.00000000
Si      -1.58237802       1.90999340       0.11900174       0.00000000
Si      -2.11269897      -0.35644149      -2.42447175       0.00000000
Si       0.64291743       2.37200223      -2.41074606       0.00000000
Si      -2.84498334      -1.52239824       1.62810716       0.00000000
Si      -3.44657304       1.05188670      -1.02112278       0.00000000
Si       0.07439643      -0.11966634       3.79583986       0.00000000
Si      -1.97757342      -3.32710218       0.28659243       0.00000000
