10
Lattice="16.28999089631971 0.0 0.0 0.0 16.28999089631971 0.0 0.0 0.0 34.31420841018396" Properties=species:S:1:pos:R:3:initial_magmoms:R:1 pbc="T T T"
Si      -0.69936228       0.64707138      -2.07227856       0.00000000
Si      -1.62631215      -1.11703625       1.25885541       0.00000000
Si       1.16452323       1.61253081       1.26119221       0.00000000
Si       0.95226453      -1.85679610      -1.29238480       0.00000000
Si      -1.97744310      -1.26740924      -2.66828238       0.00000000
Si      -1.10278413      -3.15156833      -1.40335701       0.00000000
Si      -0.21294288      -2.48447340       2.69376661       0.00000000
Si       2.51568099       0.24084765       2.69258277       0.00000000
Si       1.10967480       1.07973378      -3.49045128       0.00000000
Si       2.65160475      -2.80058399       0.01150404       0.00000000
