10
Lattice="16.28999089631971 0.0 0.0 0.0 16.28999089631971 0.0 0.0 0.0 34.31420841018396" Properties=species:S:1:pos:R:3:initial_magmoms:R:1 pbc="T T T"
Si       1.08312210       1.54820160       1.33506365       0.00000000
Si      -1.21862232      -1.32153277       1.51644866       0.00000000
Si       1.34175843      -1.33041245      -1.40619705       0.00000000
Si      -1.38451968       1.39818699      -1.39864792       0.00000000
Si       2.30070186      -0.17260884       2.90106206       0.00000000
Si       2.65390164       2.68024257      -0.04066236       0.00000000
Si      -2.61641835       2.76504831       0.20509614       0.00000000
Si      -2.77399152      -2.63659661       0.06396172       0.00000000
Si       2.56852575      -2.85952121       0.03726525       0.00000000
Si      -0.02036250      -2.66715260      -2.77952106       0.00000000
