10
Lattice="16.28999089631971 0.0 0.0 0.0 16.28999089631971 0.0 0.0 0.0 34.31420841018396" Properties=species:S:1:pos:R:3:initial_magmoms:R:1 pbc="T T T"
Si       1.35767376       1.35659862       1.35681887       0.00000000
Si       1.35718506      -1.35725022      -1.35795124       0.00000000
Si      -1.35747828       1.35746199      -1.35798556       0.00000000
Si      -1.35829278      -1.35967743       1.35644142       0.00000000
Si      -0.00097740      -2.71479366       2.71240243       0.00000000
Si      -2.71362078       0.00004887      -2.71477012       0.00000000
Si      -2.71116099      -0.00208512       2.71734368       0.00000000
Si      -0.00040725       2.71476108      -2.71463286       0.00000000
Si      -0.00079821      -2.71469592      -2.71477012       0.00000000
Si      -2.71487511       2.71463076      -0.00051471       0.00000000
