10
Lattice="16.28999089631971 0.0 0.0 0.0 16.28999089631971 0.0 0.0 0.0 34.31420841018396" Properties=species:S:1:pos:R:3:initial_magmoms:R:1 pbc="T T T"
Si       1.25877717      -1.33335279      -1.58960659       0.00000000
Si      -0.73262646      -1.95175377       1.29886214       0.00000000
Si       1.57620411       1.45792242       1.33451463       0.00000000
Si      -1.44342432       1.36518345      -1.58339572       0.00000000
Si       2.57144166      -2.78415648      -0.22801804       0.00000000
Si      -2.68995141       2.69884575      -0.08115315       0.00000000
Si      -2.69887833      -2.69935074       0.01774046       0.00000000
Si       2.70352098       2.81289204      -0.22050323       0.00000000
Si       2.60859915       0.01286910      -2.96907286       0.00000000
Si      -0.10507050      -2.70083313      -2.96574438       0.00000000
