10
Lattice="16.28999089631971 0.0 0.0 0.0 16.28999089631971 0.0 0.0 0.0 34.31420841018396" Properties=species:S:1:pos:R:3:initial_magmoms:R:1 pbc="T T T"
Si       1.45826451      -1.77987798       0.27828839       0.00000000
Si      -1.49711616      -0.09115884      -1.78612417       0.00000000
Si      -1.07564499       0.42793830       2.05020647       0.00000000
Si       1.61184663       1.53914436      -0.75927091       0.00000000
Si       0.27533358      -3.34397862      -1.00931869       0.00000000
Si      -1.50982236       2.69565291       1.75644237       0.00000000
Si       0.71529390       0.02456532       3.57725823       0.00000000
Si       1.34667801      -2.13035733       2.64521518       0.00000000
Si       3.04469874       1.69691301       1.16915436       0.00000000
Si      -0.12735522      -0.50806881      -3.66788210       0.00000000
