10
Lattice="16.28999089631971 0.0 0.0 0.0 16.28999089631971 0.0 0.0 0.0 34.31420841018396" Properties=species:S:1:pos:R:3:initial_magmoms:R:1 pbc="T T T"
Si       0.96239691      -0.37085814       2.12641837       0.00000000
Si      -2.26509192      -0.48285189       0.57829768       0.00000000
Si       0.69263451      -0.39845340      -2.25815069       0.00000000
Si      -0.11469789       2.40153696      -0.31291144       0.00000000
Si      -0.74277513       0.72247779       3.32707319       0.00000000
Si      -1.52679654       0.22019193      -3.12739870       0.00000000
Si      -2.59766856       1.31126355       2.04430442       0.00000000
Si      -3.25560537      -0.52690005      -1.52567919       0.00000000
Si      -2.09424240       3.10814829       0.69812296       0.00000000
Si       2.63573829       0.98543097      -2.63200420       0.00000000
