10
Lattice="16.28999089631971 0.0 0.0 0.0 16.28999089631971 0.0 0.0 0.0 34.31420841018396" Properties=species:S:1:pos:R:3:initial_magmoms:R:1 pbc="T T T"
Si       1.35786924       1.35575154      -1.35764241       0.00000000
Si       1.35759231      -1.35762489       1.35723064       0.00000000
Si      -1.35788553       1.35739683       1.35726496       0.00000000
Si      -1.35814617      -1.35788553      -1.35726496       0.00000000
Si       2.71428867       0.00079821       2.71319166       0.00000000
Si       2.71474479      -2.71472850      -0.00065197       0.00000000
Si       0.00030951       2.71448415       2.71501032       0.00000000
Si       2.71456560       2.71495656      -0.00037746       0.00000000
Si      -2.71505430       2.71482624      -0.00034314       0.00000000
Si      -0.00006516      -2.71604799       2.71418677       0.00000000
