10
Lattice="16.28999089631971 0.0 0.0 0.0 16.28999089631971 0.0 0.0 0.0 34.31420841018396" Properties=species:S:1:pos:R:3:initial_magmoms:R:1 pbc="T T T"
Si       1.35685926       1.35812988       1.35705907       0.00000000
Si      -1.35772263      -1.35720135       1.35740221       0.00000000
Si       1.35892809      -1.35827649      -1.35997578       0.00000000
Si      -1.35804843       1.35992178      -1.35990715       0.00000000
Si       2.71463076       2.71410948      -0.00003431       0.00000000
Si      -2.71454931       2.71447838       0.00048040       0.00000000
Si      -0.00055386      -2.71463076       2.71501032       0.00000000
Si       2.71505430       0.00003258       2.71497600       0.00000000
Si      -0.00039096       2.71551245       2.71470149       0.00000000
Si      -2.71521720       0.00039096       2.71507894       0.00000000
