10
Lattice="16.28999089631971 0.0 0.0 0.0 16.28999089631971 0.0 0.0 0.0 34.31420841018396" Properties=species:S:1:pos:R:3:initial_magmoms:R:1 pbc="T T T"
Si       1.69334550       0.67375440      -1.50811030       0.00000000
Si      -1.70077374      -0.63205200       1.54894423       0.00000000
Si      -0.73309887      -1.86632901      -1.43443766       0.00000000
Si       2.23744779       0.63623853       1.65446048       0.00000000
Si      -3.14248761       1.23158916       1.40235385       0.00000000
Si      -2.18659041      -0.50474565      -2.96066587       0.00000000
Si       0.49498794       2.23251192      -2.93386646       0.00000000
Si      -2.84674266       2.59517619      -0.54391482       0.00000000
Si       3.59894970       1.47659076      -0.34101479       0.00000000
Si      -0.89959896       3.62382048      -1.47667847       0.00000000
