10
Lattice="16.28999089631971 0.0 0.0 0.0 16.28999089631971 0.0 0.0 0.0 34.31420841018396" Properties=species:S:1:pos:R:3:initial_magmoms:R:1 pbc="T T T"
Si       1.42678083      -1.27273770       1.42272964       0.00000000
Si      -1.30574354       1.42244280       1.42909150       0.00000000
Si      -0.86640971      -1.81626984      -1.34772015       0.00000000
Si       1.15558491       1.76324589      -1.28214566       0.00000000
Si      -0.85224556       3.38535522      -1.12574172       0.00000000
Si       2.73209853      -2.47327812      -0.18714293       0.00000000
Si      -2.58928151      -2.80181484      -0.03421472       0.00000000
Si      -2.76319355       2.63370204       0.04991691       0.00000000
Si       0.06678248      -2.63919177       2.80164001       0.00000000
Si      -2.64452090       0.07970697       2.80095373       0.00000000
