10
Lattice="16.28999089631971 0.0 0.0 0.0 16.28999089631971 0.0 0.0 0.0 34.31420841018396" Properties=species:S:1:pos:R:3:initial_magmoms:R:1 pbc="T T T"
Si       0.83833227       1.46939058       1.62573947       0.00000000
Si       0.53387217      -2.10004164       0.91821442       0.00000000
Si       0.48861855       0.91885374      -2.15215404       0.00000000
Si      -2.30208651      -0.67737078      -0.14871786       0.00000000
Si      -0.19303650      -3.32117262      -0.94902859       0.00000000
Si      -1.10253978      -0.30691989      -3.33716158       0.00000000
Si      -3.21735645       0.34757973       1.67734807       0.00000000
Si      -3.04201089       0.19538226      -2.13949209       0.00000000
Si      -0.44134497       3.40469145       1.45231537       0.00000000
Si       2.78319537      -2.04077862       1.48055598       0.00000000
