10
Lattice="16.28999089631971 0.0 0.0 0.0 16.28999089631971 0.0 0.0 0.0 34.31420841018396" Properties=species:S:1:pos:R:3:initial_magmoms:R:1 pbc="T T T"
Si       0.02321325      -0.81270810       2.16502188       0.00000000
Si      -1.27967724       1.93530087      -0.17342411       0.00000000
Si      -0.83833227      -1.46939058      -1.62573947       0.00000000
Si       2.23085034       0.85805946       0.18131638       0.00000000
Si       0.43463349       1.26317547       3.22944922       0.00000000
Si       1.63149237       2.63118102       1.67724513       0.00000000
Si      -3.42700875       1.14997626       0.38737332       0.00000000
Si      -0.30446010      -3.56943222      -0.70752506       0.00000000
Si       1.57283208      -2.61526176       2.17548771       0.00000000
Si       2.79767718       1.90987218      -1.76876118       0.00000000
