10
Lattice="16.28999089631971 0.0 0.0 0.0 16.28999089631971 0.0 0.0 0.0 34.31420841018396" Properties=species:S:1:pos:R:3:initial_magmoms:R:1 pbc="T T T"
Si       1.17387369      -1.19914388       1.70792205       0.00000000
Si      -2.10137742      -1.10866873       0.39300085       0.00000000
Si      -0.05712903       2.37946564       0.66967647       0.00000000
Si       0.80050689       1.23796018      -2.40161847       0.00000000
Si      -2.77865046       0.44097193      -1.40945690       0.00000000
Si       2.38467681       2.32877116       0.36452004       0.00000000
Si      -2.48764590       2.57347954      -0.23278772       0.00000000
Si      -0.23312619       1.99344151       2.98430837       0.00000000
Si       0.63392535      -3.46031107       1.36299543       0.00000000
Si      -1.55567871      -3.43814038       0.34581879       0.00000000
