10
Lattice="16.28999089631971 0.0 0.0 0.0 16.28999089631971 0.0 0.0 0.0 34.31420841018396" Properties=species:S:1:pos:R:3:initial_magmoms:R:1 pbc="T T T"
Si       0.44421201      -0.10177992      -2.24071906       0.00000000
Si       1.03711914       1.93464927       0.91251825       0.00000000
Si      -2.44180584       0.05069448       0.30515643       0.00000000
Si       1.44435285      -1.54952109       1.27120488       0.00000000
Si      -2.38467681      -2.32877116      -0.36452004       0.00000000
Si      -1.58416992      -1.09081098      -2.76613851       0.00000000
Si       0.83395026       1.29872025       3.20951265       0.00000000
Si       3.02376839       2.10111678      -0.38208892       0.00000000
Si      -2.61780300      -0.33532965       2.61978833       0.00000000
Si       0.85341681      -1.09059921       3.46161928       0.00000000
