10
Lattice="16.28999089631971 0.0 0.0 0.0 16.28999089631971 0.0 0.0 0.0 34.31420841018396" Properties=species:S:1:pos:R:3:initial_magmoms:R:1 pbc="T T T"
Si      -1.90242765       0.88112610      -1.12180073       0.00000000
Si       1.76674728       1.39129632      -0.79087432       0.00000000
Si       0.66632616      -2.25152398      -0.48448258       0.00000000
Si      -0.34569009       0.13292640       2.37282884       0.00000000
Si      -2.63034630       0.51875505       2.55301285       0.00000000
Si       2.03387233      -1.98990495      -2.37149058       0.00000000
Si       2.14961278      -2.75286502       1.32271053       0.00000000
Si      -3.54778281      -0.84406635      -0.92943517       0.00000000
Si       3.29516468      -0.04017114      -2.04272597       0.00000000
Si      -2.53381176       3.03604875      -0.18975768       0.00000000
