10
Lattice="16.28999089631971 0.0 0.0 0.0 16.28999089631971 0.0 0.0 0.0 34.31420841018396" Properties=species:S:1:pos:R:3:initial_magmoms:R:1 pbc="T T T"
Si       1.33877736       1.34273583      -1.37186223       0.00000000
Si       1.35231155      -1.35850455       1.35891204       0.00000000
Si      -1.36231641       1.35645201       1.35922087       0.00000000
Si      -1.35716877      -1.37363796      -1.38582126       0.00000000
Si      -0.11867265       2.55399507      -2.75103682       0.00000000
Si       2.71151352      -0.00138465       2.71614268       0.00000000
Si      -0.00360009       2.71363707       2.71531914       0.00000000
Si       2.71470474       2.71516833      -0.00332848       0.00000000
Si       2.71130338      -2.71889874       0.00068628       0.00000000
Si      -2.71764441       2.71278999       0.00150983       0.00000000
