10
Lattice="16.28999089631971 0.0 0.0 0.0 16.28999089631971 0.0 0.0 0.0 34.31420841018396" Properties=species:S:1:pos:R:3:initial_magmoms:R:1 pbc="T T T"
Si      -1.35659862      -1.33504695      -1.36786805       0.00000000
Si      -1.39851279       1.29495726       1.37167693       0.00000000
Si       1.35940050       1.38007251      -1.37002985       0.00000000
Si       1.16934507      -1.56755412       1.40183914       0.00000000
Si       0.12435786       2.48016879       2.71734368       0.00000000
Si       2.70610687      -2.69152665      -0.00861287       0.00000000
Si       0.00000000      -2.69487425      -2.72784384       0.00000000
Si      -2.71065600      -2.71569775       0.00614225       0.00000000
Si       2.71550946       2.71705797      -0.01324529       0.00000000
Si       2.71328751       0.02055798      -2.72722618       0.00000000
