10
Lattice="16.28999089631971 0.0 0.0 0.0 16.28999089631971 0.0 0.0 0.0 34.31420841018396" Properties=species:S:1:pos:R:3:initial_magmoms:R:1 pbc="T T T"
Si       1.35285389      -1.27617489      -1.41422658       0.00000000
Si      -1.23829771      -1.51306407       1.31636240       0.00000000
Si      -1.35079645       1.45621197      -1.39586846       0.00000000
Si       1.63849090       0.92434347       1.73413812       0.00000000
Si      -2.18279191       0.15226263       2.74239307       0.00000000
Si       2.53905097       2.58398496       0.11114378       0.00000000
Si       2.57527993      -2.79472869      -0.02762295       0.00000000
Si      -0.00325507      -2.61316035      -2.77101113       0.00000000
Si      -2.76116836      -2.69827560      -0.02930435       0.00000000
Si      -0.28152085       1.42991991       3.58676327       0.00000000
