10
Lattice="16.28999089631971 0.0 0.0 0.0 16.28999089631971 0.0 0.0 0.0 34.31420841018396" Properties=species:S:1:pos:R:3:initial_magmoms:R:1 pbc="T T T"
Si      -0.78477075       2.13174198       0.67825502       0.00000000
Si      -1.72391043      -1.32488199      -0.99089195       0.00000000
Si       1.52840925       0.34381674      -1.82071292       0.00000000
Si       0.44950626      -0.89409294       2.19731156       0.00000000
Si       0.69947631       2.54089791      -2.55074811       0.00000000
Si       3.60571005       0.21317094      -0.70893194       0.00000000
Si       0.61919919       3.72954663      -0.36242687       0.00000000
Si      -2.99655690       2.40541398      -0.21103250       0.00000000
Si      -1.01006145      -3.52634517      -1.31636240       0.00000000
Si      -0.58823190       2.41101774       3.00764205       0.00000000
