10
Lattice="16.28999089631971 0.0 0.0 0.0 16.28999089631971 0.0 0.0 0.0 34.31420841018396" Properties=species:S:1:pos:R:3:initial_magmoms:R:1 pbc="T T T"
Si       0.98013672      -2.02360896      -0.56306216       0.00000000
Si      -2.14397577       0.14571405       0.91608693       0.00000000
Si       1.55996298       0.68172021       1.62412671       0.00000000
Si      -0.17342334       0.70229448      -2.26786162       0.00000000
Si       3.25691787       1.24198218      -0.00367162       0.00000000
Si       0.36652500       2.96346167      -1.92293500       0.00000000
Si      -0.76160637      -3.32079795      -1.36001010       0.00000000
Si      -2.52148023       2.51105463       0.94525403       0.00000000
Si       1.54144125      -1.48423077       3.03626011       0.00000000
Si       2.22060393      -2.83737591       1.23805733       0.00000000
