10
Lattice="16.28999089631971 0.0 0.0 0.0 16.28999089631971 0.0 0.0 0.0 34.31420841018396" Properties=species:S:1:pos:R:3:initial_magmoms:R:1 pbc="T T T"
Si      -0.88073092      -1.56271599      -1.55457177       0.00000000
Si       2.23143189       0.83093661      -0.23409166       0.00000000
Si       0.40803518      -1.47297438       1.84116420       0.00000000
Si      -1.56311902       1.84412574       0.03417697       0.00000000
Si       1.93645257      -2.90444184       0.58931254       0.00000000
Si      -3.14955325      -1.63266525      -0.85668901       0.00000000
Si       1.27097024       0.02363679       3.49188443       0.00000000
Si       3.04659978       0.73482561       2.04365245       0.00000000
Si      -2.28328363       1.94641065       2.29846991       0.00000000
Si      -2.99597113       1.68635709      -1.89424831       0.00000000
