10
Lattice="16.28999089631971 0.0 0.0 0.0 16.28999089631971 0.0 0.0 0.0 34.31420841018396" Properties=species:S:1:pos:R:3:initial_magmoms:R:1 pbc="T T T"
Si       1.18425042      -2.05648218       0.11344284       0.00000000
Si      -2.30119775      -0.13212819       0.62208263       0.00000000
Si      -0.30962729       0.91425996      -2.22527766       0.00000000
Si       1.51314552       1.95406695       0.68827478       0.00000000
Si      -2.07009152       2.55055788      -1.85540460       0.00000000
Si      -3.28499972      -1.84072113      -0.71229474       0.00000000
Si      -3.46190912       1.79181855      -0.08547674       0.00000000
Si       3.54108762      -1.63465263       0.04206924       0.00000000
Si       0.25708878      -3.48923655       1.98205841       0.00000000
Si       1.17577962      -3.39042141      -1.84195342       0.00000000
