10
Lattice="16.28999089631971 0.0 0.0 0.0 16.28999089631971 0.0 0.0 0.0 34.31420841018396" Properties=species:S:1:pos:R:3:initial_magmoms:R:1 pbc="T T T"
Si       1.32834850      -1.22595282       1.47512060       0.00000000
Si       1.70077048       0.71923608      -1.54382939       0.00000000
Si      -0.95789435      -1.98677727      -1.10114185       0.00000000
Si      -1.38477447       1.48502898       1.44211375       0.00000000
Si       2.51331568       2.59805952       0.00281377       0.00000000
Si       2.73367051      -2.49769683       0.07979774       0.00000000
Si      -0.03546496      -2.57725719       2.82222512       0.00000000
Si       2.67659035       0.13525587       2.83128408       0.00000000
Si      -2.72579985       2.85006582       0.04477664       0.00000000
Si      -2.75277609       0.13717809       2.82380357       0.00000000
