10
Lattice="16.28999089631971 0.0 0.0 0.0 16.28999089631971 0.0 0.0 0.0 34.31420841018396" Properties=species:S:1:pos:R:3:initial_magmoms:R:1 pbc="T T T"
Si       0.90056007       1.65964149      -1.62299434       0.00000000
Si      -1.63849090      -0.92434347      -1.73413812       0.00000000
Si      -1.92001175       0.50557644       1.85262515       0.00000000
Si       1.91936925      -2.03336667      -0.40353532       0.00000000
Si       2.27846601       0.58223718       2.00247538       0.00000000
Si      -2.87678861      -2.43740754      -0.41777572       0.00000000
Si      -0.28563701      -2.20051836      -3.14836470       0.00000000
Si       2.53772136       2.99478618      -0.43946231       0.00000000
Si       2.41737084       0.53372556      -3.13209975       0.00000000
Si      -1.40383473      -3.61506051       1.07777557       0.00000000
