10
Lattice="16.28999089631971 0.0 0.0 0.0 16.28999089631971 0.0 0.0 0.0 34.31420841018396" Properties=species:S:1:pos:R:3:initial_magmoms:R:1 pbc="T T T"
Si      -0.71982089      -0.91235403      -2.03905435       0.00000000
Si       2.06858565      -1.10081304       0.26916080       0.00000000
Si       0.19948734       2.33225559       0.29101896       0.00000000
Si      -1.76545318      -0.34054245       1.55210114       0.00000000
Si       3.00183975       0.60172002       1.59780769       0.00000000
Si      -3.60011348      -0.28272924       0.09498178       0.00000000
Si      -0.69469357       2.63782341       2.42532961       0.00000000
Si      -2.92095080      -1.63587438      -1.70322100       0.00000000
Si       0.59522031      -2.76009615      -2.59117027       0.00000000
Si       2.69242749      -2.06757567      -1.79281545       0.00000000
