10
Lattice="16.28999089631971 0.0 0.0 0.0 16.28999089631971 0.0 0.0 0.0 34.31420841018396" Properties=species:S:1:pos:R:3:initial_magmoms:R:1 pbc="T T T"
Si       1.36376133      -1.30711286       1.39655475       0.00000000
Si      -1.34831770      -1.36346878      -1.36323563       0.00000000
Si       1.36755690       1.35384072      -1.35815713       0.00000000
Si      -1.53676180       1.12397253       1.41045201       0.00000000
Si      -0.05814064       2.45577777       2.79170261       0.00000000
Si      -2.70610687       2.69152665       0.00861287       0.00000000
Si       2.69763540      -2.71544104      -0.00679422       0.00000000
Si      -2.70625348      -2.70920197       0.00470105       0.00000000
Si      -2.70610687      -0.00334759      -2.71923097       0.00000000
Si       0.00718063       2.71208463      -2.71861331       0.00000000
