10
Lattice="16.28999089631971 0.0 0.0 0.0 16.28999089631971 0.0 0.0 0.0 34.31420841018396" Properties=species:S:1:pos:R:3:initial_magmoms:R:1 pbc="T T T"
Si      -0.63279387       1.10390814       1.97540145       0.00000000
Si       2.30723252      -0.60496173      -0.28652380       0.00000000
Si      -1.63992312      -1.74203631       0.22760627       0.00000000
Si      -0.07564033       1.36350558      -2.06279979       0.00000000
Si      -0.70207524      -3.31542225       1.69769641       0.00000000
Si       0.95370782      -2.21526081       2.93290566       0.00000000
Si       2.85472313      -1.99572048       1.52331151       0.00000000
Si       1.24020331       0.05571180      -3.59956247       0.00000000
Si      -2.96024391       1.43060525       1.96205322       0.00000000
Si      -0.06985103      -0.29087424       3.88131660       0.00000000
