10
Lattice="16.28999089631971 0.0 0.0 0.0 16.28999089631971 0.0 0.0 0.0 34.31420841018396" Properties=species:S:1:pos:R:3:initial_magmoms:R:1 pbc="T T T"
Si      -1.60985713      -1.10454345      -1.25898901       0.00000000
Si       2.06909064      -0.09539424      -1.12035953       0.00000000
Si       0.47426706      -1.21577157       1.97697991       0.00000000
Si      -0.89960548       2.15211167       0.50297795       0.00000000
Si       3.48371424       0.27606663       0.73247150       0.00000000
Si      -3.30681203      -1.66480542       0.36880932       0.00000000
Si      -0.58629828      -3.02893002      -2.20739995       0.00000000
Si      -2.26715165       1.89049264       2.38998595       0.00000000
Si      -2.17279997       0.29023893      -3.16490415       0.00000000
Si       2.65513968      -0.69506172       2.72406927       0.00000000
