10
Lattice="16.290000149 0.0 0.0 0.0 16.290000149 0.0 0.0 0.0 29.1751946751" Properties=species:S:1:pos:R:3:initial_magmoms:R:1 pbc="T T T"
Si       1.22380255      -1.53386641       1.24029588       0.00000000
Si      -1.38626272      -1.35203743      -1.29470761       0.00000000
Si      -1.05707440       1.46730547       1.47938660       0.00000000
Si       1.37573938       1.31706280      -1.35895139       0.00000000
Si       0.75924433       2.22474161       2.86121134       0.00000000
Si      -2.37384398       0.11161908       2.86538339       0.00000000
Si      -0.01915704       2.60055191      -2.71854464       0.00000000
Si      -0.02627577      -2.69935076      -2.63017298       0.00000000
Si      -2.50512509       2.81885421       0.19722432       0.00000000
Si      -2.74136267       0.00570150      -2.59799274       0.00000000
