10
Lattice="16.290000149 0.0 0.0 0.0 16.290000149 0.0 0.0 0.0 29.1751946751" Properties=species:S:1:pos:R:3:initial_magmoms:R:1 pbc="T T T"
Si      -1.33211476       1.36622439      -1.37208023       0.00000000
Si       1.37022685       1.37224355       1.33027218       0.00000000
Si       1.36974792      -1.33986880      -1.37995753       0.00000000
Si      -1.37859013      -1.32682051       1.38920607       0.00000000
Si      -2.63650394      -2.69478956      -0.06599429       0.00000000
Si       0.05991423      -2.67638186       2.67618226       0.00000000
Si      -0.02573820       2.70987410       2.67842875       0.00000000
Si      -2.70273908       2.70637175      -0.00659359       0.00000000
Si      -2.66462048       0.01132155      -2.75478023       0.00000000
Si       2.77563684       0.03398094       2.66369527       0.00000000
