10
Lattice="16.290000149 0.0 0.0 0.0 16.290000149 0.0 0.0 0.0 29.1751946751" Properties=species:S:1:pos:R:3:initial_magmoms:R:1 pbc="T T T"
H       -0.16102665       0.78928309       1.27851538       0.00000000
Si       1.07880526       1.16787898      -1.70648631       0.00000000
Si      -2.21115575       0.07521093      -0.80631486       0.00000000
Si       0.85828753      -2.07920675       0.78682583       0.00000000
H       -1.44314740      -1.90156430       1.69951344       0.00000000
H       -1.55818738       2.82177012       0.82043565       0.00000000
Si      -2.73193077      -1.92502190       0.89197323       0.00000000
Si       1.95574484      -0.61514299      -2.98867777       0.00000000
Si       0.71495182      -1.66638557       3.15027917       0.00000000
Si      -2.75670786       2.45992034      -0.06873676       0.00000000
