10
Lattice="16.290000149 0.0 0.0 0.0 16.290000149 0.0 0.0 0.0 29.1751946751" Properties=species:S:1:pos:R:3:initial_magmoms:R:1 pbc="T T T"
Si       1.34744365       1.35545833       1.36309427       0.00000000
Si      -1.35119035       1.36866952      -1.35638398       0.00000000
Si      -1.35993808      -1.34478838       1.37219693       0.00000000
Si       1.37801998      -1.35047359      -1.34844832       0.00000000
Si      -0.04927725      -2.75416662      -2.59230649       0.00000000
Si       2.67903713      -2.69990462       0.06859088       0.00000000
Si      -0.02230101       2.71963181       2.69879303       0.00000000
Si      -2.67263516       0.02717172      -2.74850173       0.00000000
Si       2.69355152      -0.00340461       2.73167348       0.00000000
Si       2.69969285       2.73033435       0.01703831       0.00000000
