10
Lattice="16.290000149 0.0 0.0 0.0 16.290000149 0.0 0.0 0.0 29.1751946751" Properties=species:S:1:pos:R:3:initial_magmoms:R:1 pbc="T T T"
Si       1.38017026       1.31761666      -1.36318180       0.00000000
Si      -1.37269315      -1.32796081      -1.36291922       0.00000000
Si       1.35609364      -1.37024965       1.33841206       0.00000000
Si      -1.36933741       1.37930689       1.32192807       0.00000000
Si      -0.05251896       2.63710667      -2.64624851       0.00000000
Si       0.04675230      -2.65616597      -2.66687537       0.00000000
Si       2.72648990      -0.00874773       2.66562084       0.00000000
Si      -2.72979678       0.01697418       2.66567919       0.00000000
Si      -0.01418859       2.73281042       2.68163802       0.00000000
Si      -0.00048870      -2.72564282       2.69567129       0.00000000
