10
Lattice="16.290000149 0.0 0.0 0.0 16.290000149 0.0 0.0 0.0 29.1751946751" Properties=species:S:1:pos:R:3:initial_magmoms:R:1 pbc="T T T"
Si      -2.19708119       0.72352036       0.44710986       0.00000000
Si      -0.26192691      -2.03330153       1.19177753       0.00000000
Si       1.56089152       1.31258305       1.22232396       0.00000000
Si      -0.28919637       0.88650181      -2.23837929       0.00000000
H        2.24119451      -0.95628817      -1.62587525       0.00000000
H        0.80050690      -1.86649193      -2.17054696       0.00000000
H        1.61269372      -2.61974153      -0.52877123       0.00000000
H        1.05616216      -2.49298904       1.78771005       0.00000000
Si      -2.15212079       2.87638886      -0.51211219       0.00000000
Si      -2.41872293      -0.08602749      -2.91206371       0.00000000
