10
Lattice="16.290000149 0.0 0.0 0.0 16.290000149 0.0 0.0 0.0 29.1751946751" Properties=species:S:1:pos:R:3:initial_magmoms:R:1 pbc="T T T"
Si       1.36214701      -1.41071401       1.30404368       0.00000000
Si      -1.45779586       1.28135512       1.33841206       0.00000000
Si       1.18075785       1.71102017      -1.17619797       0.00000000
Si      -1.09808610      -1.70587253      -1.26220645       0.00000000
Si       2.36709341      -2.66276342      -0.53373101       0.00000000
Si      -2.76938799      -2.49051296       0.18403713       0.00000000
Si       2.53514105       0.05753628       2.75211654       0.00000000
Si      -2.85556209       2.45358353      -0.12586179       0.00000000
Si      -0.12544603      -2.60908787       2.73827291       0.00000000
Si       0.31136055      -3.65989062      -1.26649520       0.00000000
