10
Lattice="16.290000149 0.0 0.0 0.0 16.290000149 0.0 0.0 0.0 29.1751946751" Properties=species:S:1:pos:R:3:initial_magmoms:R:1 pbc="T T T"
Si      -1.37929060       1.34680834       1.32114034       0.00000000
Si      -1.37039626      -1.36150192      -1.32720878       0.00000000
Si       1.35200485       1.39136149      -1.32723796       0.00000000
Si       1.35578413      -1.32962239       1.38806824       0.00000000
Si       0.04136031       2.65629629       2.63457843       0.00000000
Si       0.01493793      -2.67590945      -2.68537244       0.00000000
Si       2.70311375      -2.67696830       0.02115202       0.00000000
Si      -2.72648990       0.00874773      -2.66562084       0.00000000
Si      -2.72852615      -0.01093059       2.67449010       0.00000000
Si       2.69568551       0.06112008      -2.71481021       0.00000000
