10
Lattice="16.290000149 0.0 0.0 0.0 16.290000149 0.0 0.0 0.0 29.1751946751" Properties=species:S:1:pos:R:3:initial_magmoms:R:1 pbc="T T T"
Si      -1.39489642       1.28348911      -1.35959325       0.00000000
Si       1.43943328      -1.36994014      -1.23209765       0.00000000
Si      -1.37573938      -1.31706280       1.35895139       0.00000000
Si       0.87926905       1.88880923       1.06746202       0.00000000
Si      -2.43281378       0.15024267       2.83833799       0.00000000
Si       0.05634711      -2.71935488      -2.57331052       0.00000000
Si      -2.57865815       2.73456974       0.05251535       0.00000000
Si      -0.01104462       2.61891074      -2.70077695       0.00000000
Si       2.78070303      -0.03696201      -2.60528653       0.00000000
Si      -2.74501164      -0.05914899      -2.67218526       0.00000000
