10
Lattice="16.290000149 0.0 0.0 0.0 16.290000149 0.0 0.0 0.0 29.1751946751" Properties=species:S:1:pos:R:3:initial_magmoms:R:1 pbc="T T T"
Si       1.43058944      -1.21156876       1.38541329       0.00000000
Si      -1.43544060       1.24408360       1.36860838       0.00000000
Si      -1.35841937      -1.41162625      -1.31267953       0.00000000
Si       1.36762859       1.42904026      -1.29847121       0.00000000
H       -1.18586966      -1.45487620       3.06214091       0.00000000
Si      -0.04752445      -2.41947227       2.77100164       0.00000000
Si       2.57334924      -2.63889857      -0.08008591       0.00000000
Si      -0.01746940       2.68493411       2.53619967       0.00000000
Si       2.56554633       0.02661786      -2.77494029       0.00000000
Si      -2.72510363       2.65685015       0.00796483       0.00000000
