10
Lattice="16.290000149 0.0 0.0 0.0 16.290000149 0.0 0.0 0.0 29.1751946751" Properties=species:S:1:pos:R:3:initial_magmoms:R:1 pbc="T T T"
Si      -1.25525854       1.10252187      -1.60338117       0.00000000
Si      -1.88092487      -0.00617717       1.35530449       0.00000000
Si       1.57380949       1.68440068       0.44533017       0.00000000
Si       0.40902561      -2.29374768       0.29504874       0.00000000
H        1.84008584       0.58683422      -2.37346044       0.00000000
H       -2.06371496       1.38394791       1.95704288       0.00000000
Si       2.03242187      -2.46443430      -1.37467682       0.00000000
Si      -1.06137496      -1.26552287       3.06268940       0.00000000
Si       0.84347992       2.31658300       2.62619377       0.00000000
Si      -2.58515786       2.64888272      -0.44352131       0.00000000
