10
Lattice="16.290000149 0.0 0.0 0.0 16.290000149 0.0 0.0 0.0 29.1751946751" Properties=species:S:1:pos:R:3:initial_magmoms:R:1 pbc="T T T"
Si       1.21872007      -1.44322885       1.41736451       0.00000000
Si      -1.49897323       1.28857583       1.30672779       0.00000000
Si      -1.22531752      -1.11226492      -1.70946218       0.00000000
Si       1.63652600       1.47795913      -0.94612239       0.00000000
H       -0.09767484      -0.74834632      -2.79302891       0.00000000
Si       2.55783953      -2.78555745       0.05899224       0.00000000
Si      -2.74815561      -2.62282034       0.04072857       0.00000000
Si      -0.17902710       2.56558054       2.80181648       0.00000000
Si       0.89560792       3.66726999      -0.57912761       0.00000000
H        3.02767572      -0.75533473      -2.33926711       0.00000000
