10
Lattice="16.290000149 0.0 0.0 0.0 16.290000149 0.0 0.0 0.0 29.1751946751" Properties=species:S:1:pos:R:3:initial_magmoms:R:1 pbc="T T T"
Si       1.53655426      -1.26918649      -1.20175544       0.00000000
Si       1.39100311       1.32253624       1.36777689       0.00000000
Si      -1.21858975      -1.43379694       1.44102413       0.00000000
Si      -1.47066121       1.20829447      -1.45333315       0.00000000
H        0.35416089      -1.80652844      -2.25384214       0.00000000
Si      -2.67232565       2.68596038      -0.03057560       0.00000000
Si       2.84814640       2.50268159      -0.04738052       0.00000000
Si      -2.65064366      -0.06014268       2.72316016       0.00000000
Si      -0.13874193       2.54005085      -2.84989137       0.00000000
Si       0.06214635       2.76359853       2.67969203       0.00000000
