10
Lattice="16.290000149 0.0 0.0 0.0 16.290000149 0.0 0.0 0.0 29.1751946751" Properties=species:S:1:pos:R:3:initial_magmoms:R:1 pbc="T T T"
Si      -0.21302433       2.13809510       0.91052865       0.00000000
Si      -1.81631873      -0.75743614      -1.38182475       0.00000000
Si       0.33977682      -1.95253571       1.36884178       0.00000000
Si       2.12625227       0.57845791      -1.00537721       0.00000000
H        2.20892402      -0.23799690       1.56915867       0.00000000
H       -1.34482096       2.19527300       1.91456380       0.00000000
H        2.86298382      -0.65508607       1.61513878       0.00000000
Si       1.94992931      -2.74427859      -0.15057318       0.00000000
H       -1.05505444      -1.12410775       3.00907123       0.00000000
H        1.06013692      -1.87365953       2.69231614       0.00000000
