10
Lattice="16.290000149 0.0 0.0 0.0 16.290000149 0.0 0.0 0.0 29.1751946751" Properties=species:S:1:pos:R:3:initial_magmoms:R:1 pbc="T T T"
H       -1.03874815      -0.02383227       1.12940096       0.00000000
Si      -0.89567308       1.42227991      -1.57977844       0.00000000
Si       0.35003952      -2.11822130      -0.90189279       0.00000000
Si       1.86701321       1.32756985       0.45799221       0.00000000
H        0.92828566       0.30009438       2.41882786       0.00000000
H       -2.19706490       0.30708279       1.96506606       0.00000000
H       -2.29197044      -1.96312421       0.87443893       0.00000000
Si       0.25759377       2.86418928       1.53219370       0.00000000
Si      -0.33940215       0.38879343      -3.58531050       0.00000000
Si      -1.72515989      -2.80367193      -1.78797263       0.00000000
