10
Lattice="16.290000149 0.0 0.0 0.0 16.290000149 0.0 0.0 0.0 29.1751946751" Properties=species:S:1:pos:R:3:initial_magmoms:R:1 pbc="T T T"
Si      -0.81954991       1.25934570      -1.70738491       0.00000000
Si      -1.83474272      -1.02402199       0.93823925       0.00000000
Si       1.04114278       1.85472240       0.94914494       0.00000000
Si       1.73864801      -1.54352638      -0.46694870       0.00000000
H       -1.00234000       2.64947078      -1.10564652       0.00000000
Si      -0.42645591      -2.38550762       2.19148016       0.00000000
Si       1.47040057      -1.02822481      -2.76764066       0.00000000
Si       2.45685782       0.50882532       2.20098252       0.00000000
Si       1.06137496       1.26552287      -3.06268940       0.00000000
Si       0.99507466      -0.92559781       3.41630443       0.00000000
