10
Lattice="16.290000149 0.0 0.0 0.0 16.290000149 0.0 0.0 0.0 29.1751946751" Properties=species:S:1:pos:R:3:initial_magmoms:R:1 pbc="T T T"
Si      -1.33491664      -1.34043895       1.32698121       0.00000000
Si       1.50131899      -1.23545805      -1.27674736       0.00000000
Si      -1.24929640       1.37078722      -1.41322309       0.00000000
Si       1.41913594       1.42961041       1.23566286       0.00000000
Si       0.65925631       2.16046127      -2.53552864       0.00000000
H       -0.54216379      -0.44070966      -3.33153882       0.00000000
Si       2.36503109       0.49192542      -2.66238793       0.00000000
Si       0.09966222      -2.68584635       2.58950859       0.00000000
Si      -2.66403404       0.07897392       2.61486183       0.00000000
Si      -2.69565293      -2.62398462      -0.08294508       0.00000000
