10
Lattice="16.290000149 0.0 0.0 0.0 16.290000149 0.0 0.0 0.0 29.1751946751" Properties=species:S:1:pos:R:3:initial_magmoms:R:1 pbc="T T T"
Si       1.34732962      -1.34734591      -1.36691622       0.00000000
Si      -1.35404110      -1.37472940       1.34281751       0.00000000
Si      -1.35578413       1.32962239      -1.38806824       0.00000000
Si       1.36521604       1.33964074       1.37251786       0.00000000
Si      -2.72748360      -0.01583388       2.66389950       0.00000000
Si      -0.01785384       2.68330511       2.70868342       0.00000000
Si       2.68319108      -2.72295497      -0.01336224       0.00000000
Si      -0.01151703      -2.71287146      -2.69771355       0.00000000
Si      -2.73507473       2.67643073      -0.06692790       0.00000000
Si       2.70949943       2.71119359       0.00942359       0.00000000
