10
Lattice="16.290000149 0.0 0.0 0.0 16.290000149 0.0 0.0 0.0 29.1751946751" Properties=species:S:1:pos:R:3:initial_magmoms:R:1 pbc="T T T"
Si      -1.31981581      -1.32651100       1.36588575       0.00000000
Si       1.26139010      -1.42817689      -1.32640705       0.00000000
Si      -1.13736781       1.50146560      -1.38469909       0.00000000
Si       1.50657415       1.38289069       1.16953669       0.00000000
Si       1.94338073       0.33208794      -2.83523141       0.00000000
H       -2.31976118       0.96412366      -2.43678578       0.00000000
Si       0.53393408       2.28610604      -2.83094266       0.00000000
Si       0.10713933       2.73285929       2.53831721       0.00000000
Si       0.12990982      -2.71099811       2.59275520       0.00000000
Si      -2.57818574       0.07333758       2.73120026       0.00000000
