10
Lattice="16.290000149 0.0 0.0 0.0 16.290000149 0.0 0.0 0.0 29.1751946751" Properties=species:S:1:pos:R:3:initial_magmoms:R:1 pbc="T T T"
Si      -1.30135924       1.44493930       1.28330536       0.00000000
Si       1.27250965       1.47517354      -1.32014838       0.00000000
Si       1.46372167      -1.40520799       1.20776553       0.00000000
Si      -1.37826433      -1.02587905      -1.63667007       0.00000000
Si       0.34324659      -1.45969804      -3.16250358       0.00000000
Si      -0.46257084       2.33608376      -2.61036302       0.00000000
Si       2.25178301       0.03746700      -2.84676962       0.00000000
Si       2.42051483      -2.67240710      -0.54933974       0.00000000
Si      -2.59991660      -0.03816747       2.56171922       0.00000000
Si      -2.27802620       0.79778647      -2.74877014       0.00000000
