10
Lattice="16.290000149 0.0 0.0 0.0 16.290000149 0.0 0.0 0.0 29.1751946751" Properties=species:S:1:pos:R:3:initial_magmoms:R:1 pbc="T T T"
Si       1.33165213       1.36047565       1.37727050       0.00000000
Si      -1.29516904      -1.31479849       1.46844298       0.00000000
Si      -1.39005829       1.36032904      -1.35348396       0.00000000
Si       1.39943482      -1.34996860      -1.36878052       0.00000000
Si      -0.10713933      -2.73285929      -2.53831721       0.00000000
Si       0.06708499       2.54047439      -2.76864137       0.00000000
Si      -2.68532507      -2.65952171       0.19288305       0.00000000
Si       2.67801086       2.68820840      -0.00458634       0.00000000
Si       2.70122411       0.01190799       2.74074405       0.00000000
Si       2.75903733      -2.68757309       0.01246073       0.00000000
