10
Lattice="16.290000149 0.0 0.0 0.0 16.290000149 0.0 0.0 0.0 29.1751946751" Properties=species:S:1:pos:R:3:initial_magmoms:R:1 pbc="T T T"
Si       1.42749271       1.38927637       1.17754003       0.00000000
Si      -1.31908276       1.44112744      -1.27629807       0.00000000
Si       1.43492095      -1.32134707      -1.28198723       0.00000000
Si      -1.38385180      -1.33542163       1.34118370       0.00000000
Si       0.05792724      -2.66128103      -2.61462260       0.00000000
Si      -2.66789477       0.07946262      -2.62410453       0.00000000
Si       0.01104462      -2.61891074       2.70077695       0.00000000
Si      -2.56761353       0.11565900       2.75329230       0.00000000
Si       2.72132597       0.09589923       2.60479056       0.00000000
Si       0.06991668       2.80064199      -2.58970698       0.00000000
