10
Lattice="16.290000149 0.0 0.0 0.0 16.290000149 0.0 0.0 0.0 29.1751946751" Properties=species:S:1:pos:R:3:initial_magmoms:R:1 pbc="T T T"
Si       1.35985663      -1.35292198       1.35294130       0.00000000
Si      -1.36221868       1.36288169       1.34564750       0.00000000
Si       1.34996860       1.38769136      -1.33505691       0.00000000
Si      -1.34679205      -1.38775000      -1.33963741       0.00000000
Si      -2.78137092      -0.04234260      -2.60216479       0.00000000
Si       0.00035838      -2.71659047       2.69502943       0.00000000
Si       2.79309972       0.05636666      -2.61774434       0.00000000
Si      -0.00236205       2.70659493       2.70891683       0.00000000
Si      -0.02731833       2.72770677      -2.69348315       0.00000000
Si      -2.72683199       0.01523604       2.69558376       0.00000000
