10
Lattice="16.290000149 0.0 0.0 0.0 16.290000149 0.0 0.0 0.0 29.1751946751" Properties=species:S:1:pos:R:3:initial_magmoms:R:1 pbc="T T T"
Si      -1.67686004       1.67964563       0.25064410       0.00000000
Si       0.35961804      -0.23534163       2.36161531       0.00000000
Si       1.63839934       1.05893146      -1.43215196       0.00000000
Si      -1.07137702      -1.69236812      -1.38240825       0.00000000
H        1.88797029      -1.64002835       0.26138057       0.00000000
H        0.53683695       2.46387881       1.37730259       0.00000000
H       -1.08308953       0.04888629       2.80251085       0.00000000
Si      -2.41256531      -0.27720693      -2.75413838       0.00000000
Si       0.34873632       2.47169801      -2.79279551       0.00000000
Si      -3.53895366       0.83797390      -1.00155526       0.00000000
