10
Lattice="16.290000149 0.0 0.0 0.0 16.290000149 0.0 0.0 0.0 29.1751946751" Properties=species:S:1:pos:R:3:initial_magmoms:R:1 pbc="T T T"
Si      -1.36214701       1.41071401      -1.30404368       0.00000000
Si       1.17299404       1.46825029       1.44807286       0.00000000
Si      -1.48759304      -1.19837386       1.43422923       0.00000000
Si       1.00494640      -1.25204941      -1.83777469       0.00000000
Si      -2.46023311      -0.29515851      -2.56625012       0.00000000
Si      -1.05078646      -2.24917661      -2.57053888       0.00000000
Si       2.39464631       0.48053871      -2.75031643       0.00000000
Si      -0.12799053      -2.53597835       2.81547047       0.00000000
Si       2.55015065       0.11885184       2.80774780       0.00000000
Si       2.47155140       2.95135707       0.16965901       0.00000000
