10
Lattice="16.290000149 0.0 0.0 0.0 16.290000149 0.0 0.0 0.0 29.1751946751" Properties=species:S:1:pos:R:3:initial_magmoms:R:1 pbc="T T T"
Si      -1.33004740       1.40853115      -1.31092902       0.00000000
Si       1.33522632       1.37730322       1.34433462       0.00000000
Si       1.35057638      -1.32631552      -1.40636108       0.00000000
Si      -1.38502615      -1.33182154       1.36732467       0.00000000
Si      -2.72020343       0.06380793      -2.58648896       0.00000000
Si       2.64498957      -2.68001453       0.02424459       0.00000000
Si       2.67791166       0.01914075       2.70801239       0.00000000
Si       2.66634576       2.73523764      -0.03862796       0.00000000
Si      -0.05320461       2.73846306       2.66713795       0.00000000
Si      -2.75371196      -2.68069871       0.02940860       0.00000000
