10
Lattice="16.290000149 0.0 0.0 0.0 16.290000149 0.0 0.0 0.0 29.1751946751" Properties=species:S:1:pos:R:3:initial_magmoms:R:1 pbc="T T T"
Si       1.37924173      -1.33302700      -1.32394116       0.00000000
Si      -1.18321764      -1.52717122       1.31889385       0.00000000
Si       1.51058800       1.36288657       1.16239811       0.00000000
Si      -1.03890616       1.54144126      -1.48793493       0.00000000
H        2.71805168      -0.68434291      -1.05736741       0.00000000
Si      -1.41050876      -3.37289340      -0.12580344       0.00000000
Si       0.12978243       2.49491126       2.67571545       0.00000000
Si       2.29845386       2.83354779      -0.55928848       0.00000000
Si       0.89634097      -3.55198566      -0.72179432       0.00000000
Si      -2.64839564      -0.31462506       2.65357148       0.00000000
