10
Lattice="16.290000149 0.0 0.0 0.0 16.290000149 0.0 0.0 0.0 29.1751946751" Properties=species:S:1:pos:R:3:initial_magmoms:R:1 pbc="T T T"
Si       1.36006352       1.35035956      -1.35343728       0.00000000
Si       1.37014703      -1.34273584       1.35679243       0.00000000
Si      -1.33863604       1.36300060       1.37251786       0.00000000
Si      -1.34839336      -1.37828062      -1.35119079       0.00000000
Si      -2.68645397      -0.04807179       2.67819535       0.00000000
Si       2.66906277      -2.70013268      -0.06091781       0.00000000
Si      -0.02880235       2.69951366      -2.68362193       0.00000000
Si      -2.69096630      -0.02047653      -2.72041185       0.00000000
Si       2.67823404      -0.01242927      -2.74424799       0.00000000
Si       2.72666421       0.03893310       2.70704961       0.00000000
