10
Lattice="16.290000149 0.0 0.0 0.0 16.290000149 0.0 0.0 0.0 29.1751946751" Properties=species:S:1:pos:R:3:initial_magmoms:R:1 pbc="T T T"
Si       1.34806267       1.36164853       1.35060729       0.00000000
Si      -1.34268534       1.35816247      -1.36367777       0.00000000
Si       1.35894439      -1.35534430      -1.35422501       0.00000000
Si      -1.36783385      -1.36502056       1.34418874       0.00000000
Si      -0.03292209      -2.69915528      -2.68376781       0.00000000
Si       2.69114060      -0.02145393       2.69418335       0.00000000
Si      -2.67791166      -0.01914075      -2.70801239       0.00000000
Si      -0.04051323       2.71248050       2.68408873       0.00000000
Si       2.69658146       2.70907589      -0.02762891       0.00000000
Si       2.68915322      -2.72541476       0.01803027       0.00000000
