10
Lattice="16.290000149 0.0 0.0 0.0 16.290000149 0.0 0.0 0.0 29.1751946751" Properties=species:S:1:pos:R:3:initial_magmoms:R:1 pbc="T T T"
Si      -0.64239616       0.84383830      -1.07884035       0.00000000
Si       2.14614236       0.25207146       1.31162923       0.00000000
Si       2.25640937      -1.47768220      -0.49551151       0.00000000
Si       0.38889117       1.22370481       2.57290207       0.00000000
Si      -2.07361928       2.07045902       0.20775656       0.00000000
Si       0.42637446      -2.66218187      -1.50815334       0.00000000
Si      -2.08106381      -0.48382929      -2.29279102       0.00000000
Si      -0.67935817      -2.30531684       2.12949746       0.00000000
Si      -1.37523439      -0.26269254       2.90733732       0.00000000
Si      -1.32048370      -2.97750415      -0.01735924       0.00000000
