10
Lattice="16.290000149 0.0 0.0 0.0 16.290000149 0.0 0.0 0.0 29.1751946751" Properties=species:S:1:pos:R:3:initial_magmoms:R:1 pbc="T T T"
Si      -1.36769212      -1.34853508       1.34997127       0.00000000
Si       1.30407967       1.29808495       1.47349904       0.00000000
Si      -1.37715661       1.40458897      -1.30124286       0.00000000
Si       1.36177885      -1.34281729      -1.39680329       0.00000000
Si       2.66100410       2.63811665       0.15910692       0.00000000
Si       2.71083521      -2.70492194      -0.01927313       0.00000000
Si      -0.01609452      -2.66698253       2.75682833       0.00000000
Si      -2.71028135      -2.71531496      -0.01643439       0.00000000
Si      -2.73114884       0.02663415       2.69763186       0.00000000
Si      -0.05434344       2.80538238      -2.63844852       0.00000000
