10
Lattice="16.290000149 0.0 0.0 0.0 16.290000149 0.0 0.0 0.0 29.1751946751" Properties=species:S:1:pos:R:3:initial_magmoms:R:1 pbc="T T T"
H       -0.90002251       0.78783328      -0.94679342       0.00000000
Si       1.06403023      -1.50386023      -1.43699504       0.00000000
Si      -1.36985869      -1.24238944       1.45146594       0.00000000
Si       1.90322588       1.28995624       0.64827283       0.00000000
Si       1.97319143       0.32757561      -2.61541033       0.00000000
Si       0.03870504       1.81530875      -2.90762908       0.00000000
H       -2.86705632       0.46390662      -2.23622032       0.00000000
Si       2.17147331       0.77465467       2.94896478       0.00000000
Si       0.03451851      -2.66426210       2.67527783       0.00000000
Si       2.56810223      -2.81017164      -0.14403794       0.00000000
