10
Lattice="16.290000149 0.0 0.0 0.0 16.290000149 0.0 0.0 0.0 29.1751946751" Properties=species:S:1:pos:R:3:initial_magmoms:R:1 pbc="T T T"
Si       1.37767789      -1.36557442      -1.31923812       0.00000000
Si       1.33709950       1.32551731       1.40438884       0.00000000
Si      -1.35311257      -1.39672090       1.32024758       0.00000000
Si      -1.33859818       1.39171987      -1.36317596       0.00000000
Si      -0.03404610      -2.65297313      -2.67251844       0.00000000
Si       2.70049106       0.03521898      -2.65644378       0.00000000
Si      -2.66274713       2.71143794       0.05282169       0.00000000
Si      -2.70547580      -0.02679705       2.67788609       0.00000000
Si      -2.73448829       0.02621061      -2.66699703       0.00000000
Si       2.68646537       2.71965671       0.09257873       0.00000000
