10
Lattice="16.290000149 0.0 0.0 0.0 16.290000149 0.0 0.0 0.0 29.1751946751" Properties=species:S:1:pos:R:3:initial_magmoms:R:1 pbc="T T T"
Si       2.24435477      -0.50741721       0.27731023       0.00000000
Si      -1.57380949      -1.68440068      -0.44533017       0.00000000
Si      -0.73032958       0.63218233       2.18086360       0.00000000
Si      -0.07307694       1.45901386      -1.93408201       0.00000000
H        0.26627634      -1.09756645      -2.81879061       0.00000000
Si      -2.82906804      -0.58187881      -2.04871135       0.00000000
Si      -1.30139182       3.31117059      -1.26763303       0.00000000
Si       1.30150585      -2.22117573      -2.83792954       0.00000000
Si       3.17366507      -1.32516545      -1.71754371       0.00000000
H       -0.00700470       3.86514463      -0.34654296       0.00000000
