10
Lattice="16.290000149 0.0 0.0 0.0 16.290000149 0.0 0.0 0.0 29.1751946751" Properties=species:S:1:pos:R:3:initial_magmoms:R:1 pbc="T T T"
Si       1.35262387       1.33406956       1.38190352       0.00000000
Si       1.32885676      -1.44106228      -1.31191514       0.00000000
Si      -1.34140006      -1.41923368       1.35838831       0.00000000
Si      -1.42563565       1.36598167      -1.33684243       0.00000000
H        0.48780405       1.65348389      -3.21301459       0.00000000
Si      -2.76262113       2.51929739       0.22184818       0.00000000
Si       2.65671983       2.68552055      -0.05744596       0.00000000
Si       2.69604389      -0.05201397       2.74779861       0.00000000
Si      -0.06214635      -2.76359853      -2.67969203       0.00000000
Si       0.00721647       2.63399528       2.80897899       0.00000000
