10
Lattice="16.290000149 0.0 0.0 0.0 16.290000149 0.0 0.0 0.0 29.1751946751" Properties=species:S:1:pos:R:3:initial_magmoms:R:1 pbc="T T T"
Si      -1.35262387      -1.33406956      -1.38190352       0.00000000
Si      -1.34540740       1.29992572       1.42707547       0.00000000
Si       1.34342002      -1.38608353       1.36589509       0.00000000
Si       1.30409596       1.35145099      -1.43934948       0.00000000
Si       2.68516217       2.63795375       0.00598091       0.00000000
Si      -2.69371442       2.64513764       0.06476893       0.00000000
Si       2.66848447      -0.10785609      -2.72506821       0.00000000
Si      -2.69402393      -2.75330325      -0.02351521       0.00000000
Si       0.00830790       2.64894950       2.79705509       0.00000000
Si       2.70764075      -0.05714532       2.74588180       0.00000000
