10
Lattice="16.290000149 0.0 0.0 0.0 16.290000149 0.0 0.0 0.0 29.1751946751" Properties=species:S:1:pos:R:3:initial_magmoms:R:1 pbc="T T T"
Si      -0.89976187       1.82366552      -1.11210007       0.00000000
Si       1.72151093      -0.43381899      -1.52583351       0.00000000
Si       1.37826433       1.02587905       1.63667007       0.00000000
Si      -1.38969991      -1.73258813       0.91254174       0.00000000
H        1.12492225      -0.51906456      -2.92883944       0.00000000
H       -1.98982352      -1.15846336      -2.19910947       0.00000000
Si       2.20457459      -2.46231497      -0.47328001       0.00000000
Si       0.33317937      -3.35567487       0.80263878       0.00000000
Si       0.91569349       3.36196281      -0.97369295       0.00000000
Si       2.65077398       2.50105259       0.31652169       0.00000000
