10
Lattice="16.290000149 0.0 0.0 0.0 16.290000149 0.0 0.0 0.0 29.1751946751" Properties=species:S:1:pos:R:3:initial_magmoms:R:1 pbc="T T T"
H       -1.03522951       1.12360928       0.01913893       0.00000000
Si      -0.84289348      -1.92765925       1.01792254       0.00000000
Si       0.27238509      -0.73734894      -2.20835801       0.00000000
Si       1.87215922       0.89601028       1.12038583       0.00000000
Si       2.53982768      -1.22192757      -2.09057775       0.00000000
Si      -2.39632418      -2.71935326      -0.57603504       0.00000000
Si       0.94284892       1.71375851       3.11523976       0.00000000
H        0.17467767       3.28501048      -1.71964432       0.00000000
Si      -2.87531535       0.53677505       2.39259936       0.00000000
Si       0.93033820      -3.07799390       2.05092866       0.00000000
