10
Lattice="16.290000149 0.0 0.0 0.0 16.290000149 0.0 0.0 0.0 29.1751946751" Properties=species:S:1:pos:R:3:initial_magmoms:R:1 pbc="T T T"
Si       1.33542163       1.36381510      -1.36901683       0.00000000
Si      -1.36168111      -1.34263810      -1.37747764       0.00000000
Si      -1.42529356       1.36221868       1.29876297       0.00000000
Si       1.40077711      -1.34107426       1.35965160       0.00000000
Si       2.70492194      -2.68721471      -0.07200438       0.00000000
Si       0.05732451      -2.71990874       2.67303134       0.00000000
Si       2.69562035       2.71054199      -0.00230484       0.00000000
Si       2.63049293       0.09450969       2.78348862       0.00000000
Si      -2.72538218      -2.69244380      -0.02733716       0.00000000
Si      -0.13260060       2.80064199       2.61097570       0.00000000
