10
Lattice="16.290000149 0.0 0.0 0.0 16.290000149 0.0 0.0 0.0 29.1751946751" Properties=species:S:1:pos:R:3:initial_magmoms:R:1 pbc="T T T"
Si      -1.34765054       1.33542163      -1.37619393       0.00000000
Si       1.31228983       1.46929285       1.27933229       0.00000000
Si      -1.41165395      -1.29569684       1.38611350       0.00000000
Si       1.41854950      -1.35552023      -1.33695330       0.00000000
H        2.22045734       0.56940067       2.08488859       0.00000000
H        0.20212632       0.22467168       3.48599814       0.00000000
Si      -0.03261258      -2.74872576       2.54113028       0.00000000
Si      -2.64313476      -2.65779009      -0.05703751       0.00000000
Si      -2.61947878       2.69656517       0.04673866       0.00000000
Si       0.07475481      -2.70212006      -2.72502153       0.00000000
