10
Lattice="16.290000149 0.0 0.0 0.0 16.290000149 0.0 0.0 0.0 29.1751946751" Properties=species:S:1:pos:R:3:initial_magmoms:R:1 pbc="T T T"
Si      -0.65008504       0.42163407      -2.13255502       0.00000000
Si      -1.90855271      -0.78967405       1.12230555       0.00000000
Si       0.85634902       1.93715795       1.04060042       0.00000000
Si       1.70577479      -1.66853585      -0.12685929       0.00000000
H       -1.20142009      -2.60117093      -0.79601018       0.00000000
Si       2.17067510       0.67364038       2.51372019       0.00000000
Si      -0.65925631      -2.16046127       2.53552864       0.00000000
Si       3.42904503      -0.72620821       1.14840568       0.00000000
Si       0.84206269      -3.39591932       1.25878128       0.00000000
Si      -2.35354664       2.01557801      -2.14515870       0.00000000
