10
Lattice="16.290000149 0.0 0.0 0.0 16.290000149 0.0 0.0 0.0 29.1751946751" Properties=species:S:1:pos:R:3:initial_magmoms:R:1 pbc="T T T"
Si       1.57667653      -1.08486514       1.32516652       0.00000000
Si      -1.23362542      -1.13699314      -1.62252010       0.00000000
Si      -1.60057396      -0.07040538       1.78733078       0.00000000
Si       1.29495727       1.59270589      -1.27262199       0.00000000
H        0.92981692      -1.91319536       2.39983481       0.00000000
H       -0.51087069      -2.82339912       1.85516310       0.00000000
Si      -1.71664022       2.23480394       2.02280377       0.00000000
Si      -2.64824903      -2.46343898      -0.38377051       0.00000000
Si       2.81492832      -2.45135180      -0.09090991       0.00000000
Si       0.12906567      -2.50683554      -2.88320944       0.00000000
