10
Lattice="16.290000149 0.0 0.0 0.0 16.290000149 0.0 0.0 0.0 29.1751946751" Properties=species:S:1:pos:R:3:initial_magmoms:R:1 pbc="T T T"
Si       1.46681599      -1.29449301       1.27221354       0.00000000
Si      -1.39880602      -1.41620048      -1.25931810       0.00000000
Si      -1.23113305       1.43015124       1.41668910       0.00000000
Si       1.38333052       1.33707018      -1.38103702       0.00000000
Si       0.15425001      -2.62987066       2.64009254       0.00000000
Si      -2.58488093       2.73950887      -0.00954029       0.00000000
Si      -2.66075975      -0.02530652      -2.68969037       0.00000000
Si       0.03047859      -2.69962444      -2.67025969       0.00000000
Si       2.69829680       0.06760024       2.71536454       0.00000000
Si       2.76230021       2.69871871      -0.04694289       0.00000000
