10
Lattice="16.290000149 0.0 0.0 0.0 16.290000149 0.0 0.0 0.0 29.1751946751" Properties=species:S:1:pos:R:3:initial_magmoms:R:1 pbc="T T T"
Si       1.37849239       1.36344043       1.30515233       0.00000000
Si      -1.31618314       1.39193164      -1.34197143       0.00000000
Si       1.32688567      -1.35946567      -1.36566169       0.00000000
Si      -1.37073835      -1.35879778       1.33753680       0.00000000
Si      -2.62824491       0.02829573      -2.68332726       0.00000000
Si      -0.00684180       2.67784796       2.66331600       0.00000000
Si       2.73768114       0.04502556      -2.62313300       0.00000000
Si       2.70782156      -0.00314397       2.68087946       0.00000000
Si      -0.09225027      -2.78907609      -2.60132454       0.00000000
Si      -0.00801468      -2.72429075       2.67346896       0.00000000
