10
Lattice="16.290000149 0.0 0.0 0.0 16.290000149 0.0 0.0 0.0 29.1751946751" Properties=species:S:1:pos:R:3:initial_magmoms:R:1 pbc="T T T"
Si       1.33191928       1.33175638      -1.39655822       0.00000000
Si      -1.20166444       1.47766591       1.42275754       0.00000000
Si       1.47066121      -1.20829447       1.45333315       0.00000000
Si      -1.55820367      -1.13125906      -1.46628693       0.00000000
H        1.82482211      -3.01482291      -0.80050899       0.00000000
Si      -0.17215272       2.63806778      -2.68951532       0.00000000
Si      -2.52903881       0.09366750       2.79896315       0.00000000
Si       2.92104138       2.46661553      -0.05832121       0.00000000
H        2.02061162       3.20878794       0.92001059       0.00000000
Si      -2.60604164       2.89953858       0.19894565       0.00000000
