10
Lattice="16.290000149 0.0 0.0 0.0 16.290000149 0.0 0.0 0.0 29.1751946751" Properties=species:S:1:pos:R:3:initial_magmoms:R:1 pbc="T T T"
Si       1.34126974       1.33297813      -1.37318889       0.00000000
Si      -1.43943328       1.36994014       1.23209765       0.00000000
Si       1.34201908      -1.34685721       1.38345856       0.00000000
Si      -1.38308617      -1.34941474      -1.34121287       0.00000000
Si      -0.16014699      -2.70760979       2.54474801       0.00000000
Si       2.70102863       2.64106514       0.01639646       0.00000000
Si      -0.01322748      -2.73657342      -2.65240447       0.00000000
Si       2.71471223      -0.02591739      -2.69427088       0.00000000
Si      -2.81517267       0.05287734       2.59104904       0.00000000
Si      -0.01555695       2.66750381      -2.75066653       0.00000000
