10
Lattice="16.290000149 0.0 0.0 0.0 16.290000149 0.0 0.0 0.0 29.1751946751" Properties=species:S:1:pos:R:3:initial_magmoms:R:1 pbc="T T T"
Si      -1.22831488       1.85215673       0.66644897       0.00000000
Si      -1.53611443      -0.71891029      -1.61029569       0.00000000
Si       1.62158806       0.67792465      -1.56078539       0.00000000
Si       0.07307694      -1.45901386       1.93408201       0.00000000
H        0.33935328      -2.55658032      -0.88470860       0.00000000
H        0.06607224       2.40613076       1.58753904       0.00000000
H        1.54926046      -0.39517911      -2.62349186       0.00000000
Si      -2.75599110      -2.04089267      -0.11462934       0.00000000
H       -0.26845920       3.09723402      -2.00958741       0.00000000
Si       2.31743171      -1.96643108       2.21139223       0.00000000
