10
Lattice="16.290000149 0.0 0.0 0.0 16.290000149 0.0 0.0 0.0 29.1751946751" Properties=species:S:1:pos:R:3:initial_magmoms:R:1 pbc="T T T"
Si       0.69587623      -2.04262430      -0.77783987       0.00000000
Si      -0.61339996      -0.52541766       2.18204198       0.00000000
Si      -1.81881110       0.89133994      -1.14897752       0.00000000
Si       1.76412557       1.48639735      -0.33443526       0.00000000
H        1.37523439       0.26269254      -2.90733732       0.00000000
Si       0.15535773       1.52458111       3.05945679       0.00000000
Si      -2.84418516      -1.25719705      -1.54981552       0.00000000
Si       2.14671251       2.12978720       1.88912303       0.00000000
Si      -0.69838489       2.33315156      -2.69958076       0.00000000
Si       0.78698620       3.34748100      -1.22923848       0.00000000
