10
Lattice="16.290000149 0.0 0.0 0.0 16.290000149 0.0 0.0 0.0 29.1751946751" Properties=species:S:1:pos:R:3:initial_magmoms:R:1 pbc="T T T"
Si      -1.37112931       1.35690814       1.33257702       0.00000000
Si      -1.37311669      -1.34705269      -1.34357607       0.00000000
Si       1.35016408       1.36440154      -1.35635480       0.00000000
Si       1.36909306      -1.34438113       1.36359025       0.00000000
Si      -0.00382815       2.71541270       2.66130291       0.00000000
Si      -0.01343925      -2.70525100      -2.68262998       0.00000000
Si       2.71930601      -2.69393271      -0.00956946       0.00000000
Si       2.72119565       0.01920591      -2.69543789       0.00000000
Si      -2.70332552       0.02301777      -2.71583135       0.00000000
Si      -2.71754669      -2.70217056       0.02211480       0.00000000
