10
Lattice="16.290000149 0.0 0.0 0.0 16.290000149 0.0 0.0 0.0 29.1751946751" Properties=species:S:1:pos:R:3:initial_magmoms:R:1 pbc="T T T"
Si       1.53611443       0.71891029       1.61029569       0.00000000
Si      -1.21987666      -1.32198238       1.49566636       0.00000000
Si       0.61972048      -1.07670385      -2.04453929       0.00000000
Si      -1.48960648       1.86579146      -0.35051079       0.00000000
H        1.87546772      -1.83767003       0.72558709       0.00000000
H        3.08537490       0.32373117      -1.01319616       0.00000000
Si      -1.87219343       1.22240161      -2.57406908       0.00000000
Si       0.30779955       2.57106701       2.27674467       0.00000000
Si       3.15770250       1.39683493       0.04951031       0.00000000
Si      -2.54977598       0.22437846       2.65552622       0.00000000
