10
Lattice="16.290000149 0.0 0.0 0.0 16.290000149 0.0 0.0 0.0 29.1751946751" Properties=species:S:1:pos:R:3:initial_magmoms:R:1 pbc="T T T"
Si       1.28966302      -1.41276655       1.36064355       0.00000000
Si      -1.33374376       1.06834708       1.61980681       0.00000000
Si       1.32020677       1.32818887      -1.43839545       0.00000000
Si      -1.41074659      -1.36347301      -1.31679324       0.00000000
H       -2.51623487       1.57610638       0.81360865       0.00000000
Si       2.70763423       0.02808396       2.52823485       0.00000000
Si      -2.02559636      -0.79205239       3.04343961       0.00000000
Si      -0.34873632      -2.47169801       2.79279551       0.00000000
H       -1.88773409       3.23955975      -0.28349537       0.00000000
Si       2.60868225       2.73738792      -0.11801366       0.00000000
