10
Lattice="16.290000149 0.0 0.0 0.0 16.290000149 0.0 0.0 0.0 29.1751946751" Properties=species:S:1:pos:R:3:initial_magmoms:R:1 pbc="T T T"
Si       1.34936587       1.39413939      -1.31181011       0.00000000
Si      -1.32370912       1.35223291       1.38433381       0.00000000
Si      -1.33709950      -1.32551731      -1.40438884       0.00000000
Si       1.38520387      -1.35615880       1.33943319       0.00000000
Si       2.67045230      -0.09607842      -2.51651809       0.00000000
Si       0.02132361      -2.71746524       2.66903433       0.00000000
Si       2.71010216       2.67768506       0.09811618       0.00000000
Si      -0.03435561       2.71851106      -2.67638065       0.00000000
Si      -2.71147052      -0.00680922       2.68817326       0.00000000
Si      -2.69405651       2.71279001       0.07086655       0.00000000
