10
Lattice="16.290000149 0.0 0.0 0.0 16.290000149 0.0 0.0 0.0 29.1751946751" Properties=species:S:1:pos:R:3:initial_magmoms:R:1 pbc="T T T"
Si      -1.37613034      -1.32049999       1.36347355       0.00000000
Si      -1.37367055       1.35272161      -1.34453885       0.00000000
Si       1.29099880      -1.36774099      -1.41207942       0.00000000
Si       1.40903614       1.32525667       1.35582965       0.00000000
Si       0.04246803      -2.69320943       2.61751094       0.00000000
Si       0.04375494       2.69483843       2.69925984       0.00000000
Si      -0.00996948       2.70252731      -2.69467933       0.00000000
Si       2.67999824      -0.00822645      -2.72548834       0.00000000
Si       2.61008156      -2.80886844      -0.13578136       0.00000000
Si      -2.73264752      -2.70216893       0.01321636       0.00000000
