10
Lattice="16.290000149 0.0 0.0 0.0 16.290000149 0.0 0.0 0.0 29.1751946751" Properties=species:S:1:pos:R:3:initial_magmoms:R:1 pbc="T T T"
H        1.33880995       0.64868410       0.26657375       0.00000000
Si      -0.47939841       0.40614228      -2.21215079       0.00000000
Si      -1.37924173       1.33302700       1.32394116       0.00000000
Si      -0.48290076      -2.21895866       0.60214684       0.00000000
H        2.27724428      -1.20928816      -0.18359950       0.00000000
H        2.84223036      -0.42591834       1.47477692       0.00000000
Si       0.54232669      -2.18593883       2.72764730       0.00000000
Si       1.34607529       1.69342697      -2.86398299       0.00000000
Si      -2.78975049      -2.03986640       1.19813772       0.00000000
Si       0.13134627       2.69591357       2.48633927       0.00000000
