10
Lattice="16.290000149 0.0 0.0 0.0 16.290000149 0.0 0.0 0.0 29.1751946751" Properties=species:S:1:pos:R:3:initial_magmoms:R:1 pbc="T T T"
Si       1.80965612       1.33429762       0.58327049       0.00000000
Si      -0.72045784      -0.33080103       2.27977889       0.00000000
Si      -1.22018617       1.86686660      -0.96998770       0.00000000
Si       1.60941943      -1.53661942      -1.07420149       0.00000000
H        0.67069189      -2.56409489       0.88663417       0.00000000
H       -1.29634192      -2.88802155      -0.40279274       0.00000000
Si      -0.25759377      -2.86418928      -1.53219370       0.00000000
Si       0.47975679       2.88065847       1.74313036       0.00000000
Si      -1.46137591       1.85850983       2.64677366       0.00000000
H       -2.45465867      -2.55710648       0.43287236       0.00000000
