10
Lattice="16.290000149 0.0 0.0 0.0 16.290000149 0.0 0.0 0.0 29.1751946751" Properties=species:S:1:pos:R:3:initial_magmoms:R:1 pbc="T T T"
H        1.98402428      -0.08930178      -1.05669638       0.00000000
Si       1.02416860      -1.33437907       1.61934001       0.00000000
Si       0.76126429       1.87411565      -1.27743590       0.00000000
Si      -0.77323744      -2.03965463      -1.00791545       0.00000000
Si      -1.06447006       1.10315881       1.87465213       0.00000000
H       -1.21990924       1.26723169      -2.36056500       0.00000000
H       -3.02275614       0.04865823      -1.28338764       0.00000000
H       -1.87396904       1.68432086      -2.40654511       0.00000000
H        2.31855572      -0.78040504       2.54043008       0.00000000
Si      -1.01830420       3.42063939      -0.64357562       0.00000000
