10
Lattice="16.290000149 0.0 0.0 0.0 16.290000149 0.0 0.0 0.0 29.1751946751" Properties=species:S:1:pos:R:3:initial_magmoms:R:1 pbc="T T T"
Si       1.39880602       1.41620048       1.25931810       0.00000000
Si      -1.26195373       1.39089397      -1.43037227       0.00000000
Si       1.42928461      -1.28342395      -1.41094159       0.00000000
Si      -1.29495727      -1.59270589       1.27262199       0.00000000
Si      -2.52858269      -2.72969903      -0.34989811       0.00000000
Si       0.28171926      -2.67757103       2.59778851       0.00000000
Si      -2.58499496       2.78614389      -0.06649027       0.00000000
Si       2.86562201       0.12170748       2.53153164       0.00000000
Si      -2.56896560       0.07630236      -2.87585729       0.00000000
Si       2.86778898      -2.63298530      -0.12396540       0.00000000
