10
Lattice="16.290000149 0.0 0.0 0.0 16.290000149 0.0 0.0 0.0 29.1751946751" Properties=species:S:1:pos:R:3:initial_magmoms:R:1 pbc="T T T"
Si      -1.31256598      -1.33537765       1.36787900       0.00000000
Si      -1.46681599       1.29449301      -1.27221354       0.00000000
Si       1.23148081       1.36209325       1.44315100       0.00000000
Si       1.38050499      -1.39478728      -1.29800441       0.00000000
Si       2.61052218      -0.09093567       2.59816779       0.00000000
Si      -0.08348547       2.63156319      -2.65325055       0.00000000
Si       2.64313476       2.65779009       0.05703751       0.00000000
Si      -2.61685742       0.07695706       2.70710796       0.00000000
Si       2.71788957      -0.04432998      -2.66798403       0.00000000
Si      -2.58390275      -2.79927851       0.06625687       0.00000000
