10
Lattice="16.290000149 0.0 0.0 0.0 16.290000149 0.0 0.0 0.0 29.1751946751" Properties=species:S:1:pos:R:3:initial_magmoms:R:1 pbc="T T T"
Si       1.24571260      -0.24980715      -1.93875004       0.00000000
Si      -0.35003952       2.11822130       0.90189279       0.00000000
Si       1.20241378      -1.32522409       1.53551967       0.00000000
Si      -2.07519941      -0.68545063      -0.88607984       0.00000000
H        2.56380167      -0.70949467      -1.34281751       0.00000000
H        0.34674894      -3.06154263      -0.22744982       0.00000000
H       -2.64200996       0.15509709       1.77633173       0.00000000
H       -1.38878767       2.09438903       2.03129375       0.00000000
H       -3.20699604      -0.62827273       0.11795531       0.00000000
Si       0.26407719      -2.24508782      -2.80198570       0.00000000
