10
Lattice="16.290000149 0.0 0.0 0.0 16.290000149 0.0 0.0 0.0 29.1751946751" Properties=species:S:1:pos:R:3:initial_magmoms:R:1 pbc="T T T"
Si      -1.23825178       1.36648666       1.41607642       0.00000000
Si       1.32282946      -1.37321443       1.33584464       0.00000000
Si       1.34781793       1.41107239      -1.30567749       0.00000000
Si      -1.38929266      -1.35809731      -1.33012630       0.00000000
H       -1.88511140       0.53815644       2.49074472       0.00000000
Si       2.61130494       0.03598461       2.65622642       0.00000000
Si      -2.81492832       2.45135180       0.09090991       0.00000000
Si      -0.09068643       2.76063375      -2.59265367       0.00000000
Si       2.68645397       0.04807179      -2.67819535       0.00000000
Si      -0.00622278      -2.70176168      -2.66629187       0.00000000
