10
Lattice="16.290000149 0.0 0.0 0.0 16.290000149 0.0 0.0 0.0 29.1751946751" Properties=species:S:1:pos:R:3:initial_magmoms:R:1 pbc="T T T"
Si      -1.41462361      -1.32644584       1.23874959       0.00000000
Si       1.36269109      -1.36984240      -1.26068934       0.00000000
Si       1.23362542       1.13699314       1.62252010       0.00000000
Si      -1.39556431       1.45109692      -1.19221516       0.00000000
Si      -0.36694854       1.06658776       3.40985088       0.00000000
Si       2.69995349       0.07830603      -2.51624384       0.00000000
Si      -2.49647510       0.09405846       2.73616646       0.00000000
Si      -0.05795982      -2.67933035      -2.57412743       0.00000000
Si       2.52858269       2.72969903       0.34989811       0.00000000
Si      -0.12079035      -2.61982298       2.66600011       0.00000000
