10
Lattice="16.290000149 0.0 0.0 0.0 16.290000149 0.0 0.0 0.0 29.1751946751" Properties=species:S:1:pos:R:3:initial_magmoms:R:1 pbc="T T T"
Si      -0.45284571      -1.28414071       0.66119744       0.00000000
H        0.51407982      -1.53940501      -1.82070720       0.00000000
Si       1.54359154      -0.42953472      -2.03709962       0.00000000
Si       2.70542042      -0.57808324      -0.01820532       0.00000000
Si      -1.26421804      -0.29892150       2.60557829       0.00000000
Si      -2.32860665      -1.99098011      -0.61623846       0.00000000
Si       1.56058201      -2.64701099       0.57565577       0.00000000
Si      -2.76829005       1.00738990       1.31262118       0.00000000
Si      -1.85912885       2.83882575       0.13420590       0.00000000
Si       0.28575918       1.21239955      -3.19427536       0.00000000
