10
Lattice="16.290000149 0.0 0.0 0.0 16.290000149 0.0 0.0 0.0 29.1751946751" Properties=species:S:1:pos:R:3:initial_magmoms:R:1 pbc="T T T"
Si       0.90042976      -0.74217241      -0.97833180       0.00000000
Si      -1.08532126       1.70779475       0.77643391       0.00000000
Si      -1.91343971      -0.28750221       1.87617216       0.00000000
Si      -1.35356869       2.22309632      -1.52425805       0.00000000
Si       2.29819599      -1.91440082       0.48594204       0.00000000
Si      -0.68869234      -1.87703156      -2.31656881       0.00000000
Si       2.04305924       0.90207505      -2.16097749       0.00000000
Si       0.85836898       2.55966401       1.84231435       0.00000000
Si      -0.48780405      -1.65348389       3.21301459       0.00000000
Si      -3.22227606      -1.73112203       0.50274695       0.00000000
