10
Lattice="16.290000149 0.0 0.0 0.0 16.290000149 0.0 0.0 0.0 29.1751946751" Properties=species:S:1:pos:R:3:initial_magmoms:R:1 pbc="T T T"
Si      -1.34565827       1.36088779      -1.35550872       0.00000000
Si       1.35648460       1.36304784       1.35016966       0.00000000
Si      -1.37560580      -1.34806267       1.35066564       0.00000000
Si       1.31722570      -1.37078722      -1.38920607       0.00000000
Si       0.01326006      -2.69721677       2.68085029       0.00000000
Si      -2.66140011      -0.02280600      -2.71787361       0.00000000
Si       2.70498710      -0.01174509      -2.69304552       0.00000000
Si      -0.02772558       2.71788878       2.68484729       0.00000000
Si      -2.68982349      -2.71440272      -0.04347104       0.00000000
Si       2.69975801      -2.71629236      -0.05304050       0.00000000
