10
Lattice="10.86 0.0 0.0 0.0 10.86 0.0 0.0 0.0 10.86" Properties=species:S:1:pos:R:3:initial_magmoms:R:1 pbc="T T T"
Si       0.10446234      -1.75000212       1.49189250       0.00000000
Si      -1.35919416       1.61349192       0.95373606       0.00000000
Si       1.08165600       1.19285154      -1.83364584       0.00000000
Si      -1.05411504      -1.44038352      -1.83733824       0.00000000
Si      -2.58851358       0.16541952       2.16232374       0.00000000
Si       0.12648642       2.88041952       2.16232374       0.00000000
Si      -2.58851358      -2.54958048      -0.55267626       0.00000000
Si      -1.31748090      -1.29469662       3.35478432       0.00000000
Si      -2.58851358       2.88041952      -0.55267626       0.00000000
Si      -1.15726332      -3.72412206       0.81941958       0.00000000
