10
Lattice="10.86 0.0 0.0 0.0 10.86 0.0 0.0 0.0 10.86" Properties=species:S:1:pos:R:3:initial_magmoms:R:1 pbc="T T T"
Si      -1.14827124       1.30113660      -1.43454084       0.00000000
Si       1.56672876       1.30113660       1.28045916       0.00000000
Si      -1.61970384      -1.44053556       1.12005696       0.00000000
Si       1.56672876      -1.41386340      -1.43454084       0.00000000
Si      -2.39070954       2.62303752      -0.11053308       0.00000000
Si      -0.08817234      -2.75267334       2.42334384       0.00000000
Si      -2.50577124      -0.05636340      -2.79204084       0.00000000
Si       0.20922876       2.65863660      -2.79204084       0.00000000
Si      -0.09318966       2.82336108       2.69364924       0.00000000
Si       2.92422876      -0.05636340       2.63795916       0.00000000
