10
Lattice="10.86 0.0 0.0 0.0 10.86 0.0 0.0 0.0 10.86" Properties=species:S:1:pos:R:3:initial_magmoms:R:1 pbc="T T T"
Si       1.04908686       1.38170694       1.15257180       0.00000000
Si       1.04908686      -1.33329306      -1.56242820       0.00000000
Si      -1.66591314      -1.33329306       1.15257180       0.00000000
Si       2.40658686       0.02420694       2.51007180       0.00000000
Si       2.40658686      -2.69079306      -0.20492820       0.00000000
Si       2.40658686       2.73920694      -0.20492820       0.00000000
Si      -0.30841314      -2.69079306       2.51007180       0.00000000
Si      -0.30841314       2.73920694       2.51007180       0.00000000
Si       2.40658686       0.02420694      -2.91992820       0.00000000
Si      -2.83429710       2.64027234      -0.40540380       0.00000000
