10
Lattice="10.86 0.0 0.0 0.0 10.86 0.0 0.0 0.0 10.86" Properties=species:S:1:pos:R:3:initial_magmoms:R:1 pbc="T T T"
Si       1.40968230      -1.38119652      -1.04346138       0.00000000
Si      -1.30531770      -1.38119652       1.67153862       0.00000000
Si       1.40968230       1.33380348       1.67153862       0.00000000
Si      -2.45998548      -0.02257794      -2.34869220       0.00000000
Si       0.05218230      -2.73869652      -2.40096138       0.00000000
Si       2.76718230      -0.02369652      -2.40096138       0.00000000
Si      -2.66281770      -2.73869652       0.31403862       0.00000000
Si       2.76718230       2.69130348       0.31403862       0.00000000
Si       0.29354580       2.90000010      -2.55747570       0.00000000
Si      -2.60287050       0.15371244       2.88050640       0.00000000
