10
Lattice="10.86 0.0 0.0 0.0 10.86 0.0 0.0 0.0 10.86" Properties=species:S:1:pos:R:3:initial_magmoms:R:1 pbc="T T T"
Si      -1.14441594       1.83599160       0.59138130       0.00000000
Si      -1.03641324      -0.85176066      -2.04161484       0.00000000
Si       0.19419852      -2.03368704       1.63990344       0.00000000
Si       1.26299628       1.79171538      -1.56062544       0.00000000
Si      -2.43737496       0.57016086       2.03858490       0.00000000
Si      -2.43737496      -2.14483914      -0.67641510       0.00000000
Si      -1.20476496      -0.95215050       3.26712240       0.00000000
Si      -1.25662146      -3.42439692       0.62041008       0.00000000
Si       0.27762504       3.28516086       2.03858490       0.00000000
Si      -3.79487496      -0.78733914       0.68108490       0.00000000
