10
Lattice="10.86 0.0 0.0 0.0 10.86 0.0 0.0 0.0 10.86" Properties=species:S:1:pos:R:3:initial_magmoms:R:1 pbc="T T T"
Si       1.14441594      -1.83599160      -0.59138130       0.00000000
Si      -1.29295902      -1.26583074       1.44720360       0.00000000
Si      -1.29295902       1.44916926      -1.26779640       0.00000000
Si       1.42204098       1.44916926       1.44720360       0.00000000
Si       2.40741222      -0.04427622      -2.15200674       0.00000000
Si      -2.65045902      -2.62333074       0.08970360       0.00000000
Si      -2.65045902       0.09166926      -2.62529640       0.00000000
Si       0.10800270      -2.68775226      -2.63299614       0.00000000
Si       0.06454098       2.80666926      -2.62529640       0.00000000
Si      -2.65045902       0.09166926       2.80470360       0.00000000
