10
Lattice="10.86 0.0 0.0 0.0 10.86 0.0 0.0 0.0 10.86" Properties=species:S:1:pos:R:3:initial_magmoms:R:1 pbc="T T T"
Si      -1.43418246       1.74634230       0.58306254       0.00000000
Si      -0.84507090      -0.98759754      -1.96078386       0.00000000
Si       0.22744098      -2.05931664       1.64635428       0.00000000
Si       1.37475654       1.51163598      -1.96240200       0.00000000
Si      -2.52079062       0.16646208       1.86141486       0.00000000
Si       0.19420938       2.88146208       1.86141486       0.00000000
Si      -2.52079062      -2.54853792      -0.85358514       0.00000000
Si      -1.28815890      -1.21492992       3.37483188       0.00000000
Si       1.56214584       1.58301876       3.15951066       0.00000000
Si      -2.52079062       2.88146208      -0.85358514       0.00000000
