10
Lattice="10.86 0.0 0.0 0.0 10.86 0.0 0.0 0.0 10.86" Properties=species:S:1:pos:R:3:initial_magmoms:R:1 pbc="T T T"
Si      -1.23263172      -1.33360800       1.20158298       0.00000000
Si       1.48236828       1.38139200       1.20158298       0.00000000
Si      -1.23263172       1.38139200      -1.51341702       0.00000000
Si       1.51559988      -0.84438672      -1.72847760       0.00000000
Si      -2.59013172       0.02389200       2.55908298       0.00000000
Si       0.12486828      -2.69110800       2.55908298       0.00000000
Si      -2.59013172      -2.69110800      -0.15591702       0.00000000
Si       0.12486828       2.73889200       2.55908298       0.00000000
Si      -2.59013172       2.73889200      -0.15591702       0.00000000
Si       1.28815890       1.21492992      -3.37483188       0.00000000
