10
Lattice="10.86 0.0 0.0 0.0 10.86 0.0 0.0 0.0 10.86" Properties=species:S:1:pos:R:3:initial_magmoms:R:1 pbc="T T T"
Si       1.25111544      -1.28864760      -1.44294648       0.00000000
Si      -1.46388456      -1.28864760       1.27205352       0.00000000
Si      -1.46388456       1.42635240      -1.44294648       0.00000000
Si       2.33291262       0.31272456       2.58112878       0.00000000
Si       2.49253290       2.69611446      -0.01609452       0.00000000
Si       2.60861544      -2.64614760      -0.08544648       0.00000000
Si      -0.10638456      -2.64614760       2.62955352       0.00000000
Si      -2.71658556       0.01640946       2.60624796       0.00000000
Si       2.60861544       0.06885240      -2.80044648       0.00000000
Si      -0.10638456      -2.64614760      -2.80044648       0.00000000
