10
Lattice="16.28999089631971 0.0 0.0 0.0 16.28999089631971 0.0 0.0 0.0 34.185847837958455" Properties=species:S:1:pos:R:3:initial_magmoms:R:1 pbc="T T T"
Si      -1.52840503       1.18509261       1.36210168       0.00000000
Si       1.33815345       1.37180859      -1.38962131       0.00000000
Si      -1.37417131      -1.34691146      -1.38432250       0.00000000
Si       1.46772411      -1.36563535       1.60082159       0.00000000
Si       2.69022345       2.69721186      -0.04157001       0.00000000
Si       2.68906686      -2.70688879      -0.00803368       0.00000000
Si       2.69286243       0.01273389      -2.74533023       0.00000000
Si      -2.73772576       2.70713247      -0.02816915       0.00000000
Si      -0.02189376      -2.70379369      -2.74642418       0.00000000
Si      -2.75219128      -2.69792929      -0.02830590       0.00000000
