10
Lattice="16.28999089631971 0.0 0.0 0.0 16.28999089631971 0.0 0.0 0.0 34.185847837958455" Properties=species:S:1:pos:R:3:initial_magmoms:R:1 pbc="T T T"
Si       2.30602869      -0.35438895       0.00656369       0.00000000
Si      -0.94247424      -0.64115811      -2.09196994       0.00000000
Si      -0.70488459      -1.40687608       1.80029612       0.00000000
Si      -0.93441069       2.23894647       0.32818432       0.00000000
Si      -0.65521638       0.17928774       3.50829041       0.00000000
Si      -3.11419188       0.22551876      -1.75455543       0.00000000
Si      -1.85088609       1.98628857       2.52821579       0.00000000
Si       3.21821982       1.79364303      -0.55158896       0.00000000
Si      -2.96026767      -1.79664039       1.49166612       0.00000000
Si      -2.42128044       2.45180790      -1.53511636       0.00000000
