10
Lattice="16.28999089631971 0.0 0.0 0.0 16.28999089631971 0.0 0.0 0.0 34.185847837958455" Properties=species:S:1:pos:R:3:initial_magmoms:R:1 pbc="T T T"
Si      -1.25504839      -0.74207466      -1.82149136       0.00000000
Si       0.69291144       2.22628914       0.21943908       0.00000000
Si       2.17171764      -0.86667687      -0.33741451       0.00000000
Si      -1.20043454      -0.26199207       2.17104185       0.00000000
Si      -2.67370118       1.61099955       1.22754611       0.00000000
Si       3.11419188      -0.22551876       1.75455543       0.00000000
Si       2.17978119       2.01342771       2.08273976       0.00000000
Si      -2.54634596       1.12801734      -2.34398815       0.00000000
Si       1.79351271      -3.10118336      -0.86172315       0.00000000
Si      -2.23445762      -2.73985487      -1.11380973       0.00000000
