10
Lattice="16.28999089631971 0.0 0.0 0.0 16.28999089631971 0.0 0.0 0.0 34.185847837958455" Properties=species:S:1:pos:R:3:initial_magmoms:R:1 pbc="T T T"
Si       1.21371903      -1.47726517      -1.40018474       0.00000000
Si       0.95263920      -0.33399387       2.16386282       0.00000000
Si      -2.34655821      -0.42168294      -0.17551024       0.00000000
Si       1.00186758       2.12561694      -0.60129521       0.00000000
Si       3.16983852       1.24048350      -0.08662699       0.00000000
Si      -0.50383341       1.28734983       3.20441224       0.00000000
Si       3.41153325      -1.07605224      -0.64307034       0.00000000
Si      -2.39622642      -2.00784676      -1.88350453       0.00000000
Si       0.61468686      -0.95535963      -3.67723696       0.00000000
Si       3.08768805       0.71768853       2.18731432       0.00000000
