10
Lattice="16.28999089631971 0.0 0.0 0.0 16.28999089631971 0.0 0.0 0.0 34.185847837958455" Properties=species:S:1:pos:R:3:initial_magmoms:R:1 pbc="T T T"
Si       0.29393676       0.11624544      -2.38162679       0.00000000
Si      -0.40021272      -2.39420646      -0.12187262       0.00000000
Si       2.04335244       0.53468667       1.24163069       0.00000000
Si      -1.93292253       1.34519562       0.81023923       0.00000000
Si      -1.54492731       1.76969673      -2.60137355       0.00000000
Si       3.56317686      -0.76678659      -0.03661306       0.00000000
Si       2.34261603      -2.84157873      -0.20067104       0.00000000
Si       2.22096231       2.85304689       1.02137115       0.00000000
Si      -1.83899439      -2.76273513       1.92056200       0.00000000
Si      -1.13590170       3.23770266       2.00267646       0.00000000
