10
Lattice="16.28999089631971 0.0 0.0 0.0 16.28999089631971 0.0 0.0 0.0 34.185847837958455" Properties=species:S:1:pos:R:3:initial_magmoms:R:1 pbc="T T T"
Si       2.22806475      -0.59375421       0.41809315       0.00000000
Si      -1.57757247      -1.71620037       0.30182702       0.00000000
Si      -0.26186175       0.65480913      -2.29882862       0.00000000
Si      -0.67455261       1.39044924       1.86825763       0.00000000
Si      -3.38871585      -0.13304043       0.69599007       0.00000000
Si      -1.26244242       3.30388893       0.60502147       0.00000000
Si       3.29958837       1.57972275       0.48827674       0.00000000
Si       2.30317794      -1.33501437       2.59542520       0.00000000
Si       1.28492262       2.44685574      -2.49447434       0.00000000
Si      -2.48736897       0.21517461       2.89670525       0.00000000
