10
Lattice="16.28999089631971 0.0 0.0 0.0 16.28999089631971 0.0 0.0 0.0 34.185847837958455" Properties=species:S:1:pos:R:3:initial_magmoms:R:1 pbc="T T T"
Si      -1.99299909      -1.29966507       0.14378576       0.00000000
Si       1.35435874      -1.76016708       1.07517970       0.00000000
Si       1.20043454       0.26199207      -2.17104185       0.00000000
Si       0.15135691       1.52875134       1.97498591       0.00000000
Si      -1.47326664       1.87299162      -0.94349574       0.00000000
Si      -1.36001856      -3.05524556       1.52195480       0.00000000
Si       1.89334597       2.48828121      -1.95160277       0.00000000
Si      -3.48959397       0.07356564       1.24392114       0.00000000
Si       0.46872032      -3.75024212       0.12358191       0.00000000
Si       2.46374032       2.02276188       2.11172937       0.00000000
