10
Lattice="16.28999089631971 0.0 0.0 0.0 16.28999089631971 0.0 0.0 0.0 34.185847837958455" Properties=species:S:1:pos:R:3:initial_magmoms:R:1 pbc="T T T"
Si       1.34309421      -1.30491045       1.34512498       0.00000000
Si       1.58433282       0.86192019      -1.45985416       0.00000000
Si      -1.38767994       1.41027417       1.31234073       0.00000000
Si      -0.89349021      -1.63543455      -1.48262194       0.00000000
Si       0.06928137       1.33775109      -3.20254710       0.00000000
Si       2.55624309       2.64122802      -0.14063724       0.00000000
Si      -1.79730828      -0.11381823      -3.24924499       0.00000000
Si      -2.63185801      -2.66414805      -0.15996251       0.00000000
Si       2.69734707      -2.63445138      -0.02677779       0.00000000
Si      -0.02181231      -2.67423156       2.68690658       0.00000000
