10
Lattice="16.28999089631971 0.0 0.0 0.0 16.28999089631971 0.0 0.0 0.0 34.185847837958455" Properties=species:S:1:pos:R:3:initial_magmoms:R:1 pbc="T T T"
Si       1.34402274       1.33307586      -1.36896620       0.00000000
Si      -1.35913986       1.35252612       1.35420475       0.00000000
Si       1.35544203      -1.36120869       1.35485428       0.00000000
Si      -1.36410831      -1.35452979      -1.37719816       0.00000000
Si      -0.04614957       2.65779495      -2.75240329       0.00000000
Si       2.57981472      -0.12357594      -2.83017613       0.00000000
Si      -0.00125433       2.71251306       2.71206738       0.00000000
Si       2.71332756      -0.00236205       2.71179390       0.00000000
Si      -2.71648782      -0.00306252       2.71182808       0.00000000
Si      -0.00107514      -2.71797021       2.71203320       0.00000000
