10
Lattice="16.28999089631971 0.0 0.0 0.0 16.28999089631971 0.0 0.0 0.0 34.185847837958455" Properties=species:S:1:pos:R:3:initial_magmoms:R:1 pbc="T T T"
Si       0.73080198       1.90578339      -1.18857798       0.00000000
Si      -1.23579198       1.45665180       1.46120993       0.00000000
Si      -0.97191027      -1.77930783      -1.31921692       0.00000000
Si       1.49639940      -1.23978303       1.44235984       0.00000000
Si      -2.55624309      -2.64122802       0.14063724       0.00000000
Si       1.97410365      -1.49967369      -2.78907245       0.00000000
Si       2.63275722       2.76159483       0.06723676       0.00000000
Si      -2.62596429       2.78137089       0.07777285       0.00000000
Si      -2.57981472       0.12357594       2.83017613       0.00000000
Si       0.13214448      -2.59493184       2.82679173       0.00000000
