10
Lattice="16.28999089631971 0.0 0.0 0.0 16.28999089631971 0.0 0.0 0.0 34.185847837958455" Properties=species:S:1:pos:R:3:initial_magmoms:R:1 pbc="T T T"
Si      -0.59579046       1.72133172      -1.40972260       0.00000000
Si      -1.41123528      -1.21451724       1.44760054       0.00000000
Si       1.50770466       0.76460373       1.66792845       0.00000000
Si       0.97880094      -1.76238252      -1.44828425       0.00000000
Si       2.16929043      -1.48067955       1.68262837       0.00000000
Si       0.16751007      -2.80956888       2.06725356       0.00000000
Si       3.08890980      -1.71681939      -0.46051781       0.00000000
Si      -2.99534004      -1.95165603      -0.06830336       0.00000000
Si      -1.98273735       0.63421857      -2.96347025       0.00000000
Si       1.32657615       2.95956720      -1.85892489       0.00000000
