10
Lattice="16.28999089631971 0.0 0.0 0.0 16.28999089631971 0.0 0.0 0.0 34.185847837958455" Properties=species:S:1:pos:R:3:initial_magmoms:R:1 pbc="T T T"
Si      -2.31415740      -0.25039359       0.24306151       0.00000000
Si       0.94397292       1.89120384       1.03299434       0.00000000
Si       0.91399932      -1.72716354       1.31721564       0.00000000
Si       0.64014813      -0.32791770      -2.26132673       0.00000000
Si       2.33474796      -1.87418079      -2.00021507       0.00000000
Si       0.83264706       1.12106151       3.34836892       0.00000000
Si      -3.22514307       1.49600844      -1.05494167       0.00000000
Si       2.30094621      -0.64005039       2.87096329       0.00000000
Si       1.86087186      -3.25663164      -0.15034944       0.00000000
Si      -2.91803422       0.59712624       2.39895903       0.00000000
