10
Lattice="16.28999089631971 0.0 0.0 0.0 16.28999089631971 0.0 0.0 0.0 34.185847837958455" Properties=species:S:1:pos:R:3:initial_magmoms:R:1 pbc="T T T"
Si       1.13326272      -0.46125135      -2.01026572       0.00000000
Si      -2.34165492      -0.15786639       0.26172700       0.00000000
Si       0.24019605       2.35735915      -0.08266143       0.00000000
Si       0.93768498      -1.45088514       1.65049366       0.00000000
Si      -0.98468163      -2.68912062       2.09969595       0.00000000
Si      -2.45298078      -0.92800872       2.57710158       0.00000000
Si      -0.06046848       0.80664822      -3.61826634       0.00000000
Si      -0.35883612       2.87926469      -2.35971365       0.00000000
Si       2.43801027       2.75857208       0.67445297       0.00000000
Si       3.42894726       0.23934897      -1.57699404       0.00000000
