10
Lattice="16.28999089631971 0.0 0.0 0.0 16.28999089631971 0.0 0.0 0.0 34.185847837958455" Properties=species:S:1:pos:R:3:initial_magmoms:R:1 pbc="T T T"
Si      -0.04641021      -2.16736821      -0.92342864       0.00000000
Si       1.97574894       1.30320000      -0.11571916       0.00000000
Si      -0.35357445      -0.04489524       2.37562482       0.00000000
Si      -1.78922844       0.56294982      -1.54161167       0.00000000
Si      -1.95668964       1.75311351       2.23096968       0.00000000
Si      -2.93035923       2.10038373       0.04194606       0.00000000
Si       0.88972722      -3.45035232       0.77513035       0.00000000
Si       1.42429986       3.00822447      -1.68512394       0.00000000
Si      -3.39794739      -1.16592417      -1.48014548       0.00000000
Si       3.67934085       0.11422548      -1.30316525       0.00000000
