10
Lattice="16.28999089631971 0.0 0.0 0.0 16.28999089631971 0.0 0.0 0.0 34.185847837958455" Properties=species:S:1:pos:R:3:initial_magmoms:R:1 pbc="T T T"
Si       0.39649860       2.27742345      -0.34558493       0.00000000
Si       1.70365707      -1.25437887      -1.11063045       0.00000000
Si      -1.00598895      -0.00996948       2.26495043       0.00000000
Si      -1.91614546      -1.54309957       0.41433271       0.00000000
Si      -2.67423482      -0.54103977      -1.56434527       0.00000000
Si       2.68757307       2.23645410       0.13790579       0.00000000
Si       3.35375262       0.43675119      -1.29232833       0.00000000
Si      -0.63506565      -3.60185651      -0.08187515       0.00000000
Si       1.77464889      -3.22630685       0.22179790       0.00000000
Si      -0.18301815       2.59993287      -2.61453510       0.00000000
