10
Lattice="16.28999089631971 0.0 0.0 0.0 16.28999089631971 0.0 0.0 0.0 34.185847837958455" Properties=species:S:1:pos:R:3:initial_magmoms:R:1 pbc="T T T"
Si       1.38800574       1.31891985      -1.34388062       0.00000000
Si       1.35376416      -1.35913986       1.35690543       0.00000000
Si      -1.35979146       1.35553977       1.35748659       0.00000000
Si      -1.37772675      -1.37411037      -1.35997190       0.00000000
Si       0.05844852       2.58800859      -2.73009701       0.00000000
Si      -2.70993924       0.03214017      -2.71371856       0.00000000
Si       2.71329498       2.71130760      -0.00300836       0.00000000
Si      -0.00174303       2.71292031       2.71439202       0.00000000
Si       2.71327869      -0.00195480       2.71466551       0.00000000
Si       2.71261080      -2.71617831      -0.00242720       0.00000000
