10
Lattice="16.28999089631971 0.0 0.0 0.0 16.28999089631971 0.0 0.0 0.0 34.185847837958455" Properties=species:S:1:pos:R:3:initial_magmoms:R:1 pbc="T T T"
Si      -1.35765747       1.35729909      -1.35734985       0.00000000
Si       1.35752715      -1.35783666      -1.35721310       0.00000000
Si       1.35653346       1.35816246       1.35789682       0.00000000
Si      -1.35834165      -1.35887922       1.35741822       0.00000000
Si      -0.00180819       2.71476108       2.71162297       0.00000000
Si       2.71318095      -0.00050499      -2.71487062       0.00000000
Si      -0.00037467       2.71417464      -2.71428946       0.00000000
Si       2.71476108       2.71494027      -0.00027349       0.00000000
Si      -2.71485882       2.71500543      -0.00003419       0.00000000
Si      -2.71606428      -0.00034209      -2.71415272       0.00000000
