10
Lattice="16.28999089631971 0.0 0.0 0.0 16.28999089631971 0.0 0.0 0.0 34.185847837958455" Properties=species:S:1:pos:R:3:initial_magmoms:R:1 pbc="T T T"
Si      -1.35376416       1.35913986      -1.35690543       0.00000000
Si      -1.35565380      -1.35733167       1.35765752       0.00000000
Si       1.35951453       1.35718506       1.35776008       0.00000000
Si       1.35884664      -1.35703845      -1.35933263       0.00000000
Si       0.03424158       2.67805971      -2.70078605       0.00000000
Si       0.00100998      -2.70936909      -2.71627908       0.00000000
Si      -2.71318095       0.00050499       2.71487062       0.00000000
Si      -2.71355562       2.71467963       0.00058116       0.00000000
Si       0.00188964      -2.71466334       2.71500737       0.00000000
Si       0.00158013       2.71544526       2.71459714       0.00000000
