10
Lattice="16.28999089631971 0.0 0.0 0.0 16.28999089631971 0.0 0.0 0.0 34.185847837958455" Properties=species:S:1:pos:R:3:initial_magmoms:R:1 pbc="T T T"
Si       1.99897848       1.27342188       0.00724740       0.00000000
Si       0.63021123      -1.70544897       1.52968080       0.00000000
Si      -0.06553467      -0.18606438      -2.38542142       0.00000000
Si      -2.15682858       0.98906364       0.68987079       0.00000000
Si      -2.08445211       2.27286225      -1.31748913       0.00000000
Si      -2.26957167       0.40531149      -2.72587847       0.00000000
Si       0.78421689      -0.30705021       3.64520481       0.00000000
Si      -1.26187227      -3.33334125       1.14481631       0.00000000
Si       3.10008474       0.86915295      -2.03792209       0.00000000
Si       1.68629193       3.53766672      -0.26586349       0.00000000
