10
Lattice="16.28999089631971 0.0 0.0 0.0 16.28999089631971 0.0 0.0 0.0 34.185847837958455" Properties=species:S:1:pos:R:3:initial_magmoms:R:1 pbc="T T T"
Si      -1.32528924      -1.39238775      -1.34087226       0.00000000
Si       1.35576783      -1.35395964       1.35895658       0.00000000
Si      -1.35874890       1.35905841       1.35960611       0.00000000
Si       1.38979764       1.35014778      -1.37506496       0.00000000
Si      -2.65484646      -0.12329901      -2.72708865       0.00000000
Si      -0.01428633       2.64324798      -2.76529136       0.00000000
Si      -2.71329498      -2.71130760       0.00300836       0.00000000
Si       2.71523349      -2.71218726      -0.00290580       0.00000000
Si      -0.00001629      -2.71326240       2.71767386       0.00000000
Si      -2.71503801       0.00161271       2.71740038       0.00000000
