10
Lattice="16.28999089631971 0.0 0.0 0.0 16.28999089631971 0.0 0.0 0.0 34.185847837958455" Properties=species:S:1:pos:R:3:initial_magmoms:R:1 pbc="T T T"
Si      -0.84874158      -1.31017212      -2.16793094       0.00000000
Si      -2.35937844       1.24941042       1.29991759       0.00000000
Si       1.01520909       0.41625837       2.87116841       0.00000000
Si       1.80644697       1.25240778      -2.16991372       0.00000000
Si      -2.24280720      -2.79270873      -0.79912883       0.00000000
Si      -0.50499000      -3.91823370       0.31659531       0.00000000
Si      -2.60174106       2.95261137      -0.71588624       0.00000000
Si      -1.61875359      -1.97539056       3.19675460       0.00000000
Si       3.30872706       2.45447946      -0.79868441       0.00000000
Si      -2.17730511       0.08496864      -3.59642157       0.00000000
