10
Lattice="16.28999089631971 0.0 0.0 0.0 16.28999089631971 0.0 0.0 0.0 34.185847837958455" Properties=species:S:1:pos:R:3:initial_magmoms:R:1 pbc="T T T"
Si      -0.92494620      -1.41336927      -1.56212319       0.00000000
Si      -1.75125645       1.41115383      -0.78306147       0.00000000
Si       0.01485648      -0.95288355       2.20567214       0.00000000
Si       1.35609363      -0.26886645      -2.05590385       0.00000000
Si       2.57774589       0.36795852      -0.14053810       0.00000000
Si       2.64922641       1.87965423       1.68984159       0.00000000
Si      -0.62723016       0.88132158       3.55997944       0.00000000
Si      -2.32844373       2.74509306       1.02383253       0.00000000
Si      -0.63749286      -0.53168931      -3.66322076       0.00000000
Si      -1.48577832      -2.83079475       2.28713706       0.00000000
