10
Lattice="16.28999089631971 0.0 0.0 0.0 16.28999089631971 0.0 0.0 0.0 34.185847837958455" Properties=species:S:1:pos:R:3:initial_magmoms:R:1 pbc="T T T"
Si      -2.17508967       0.48132063      -0.68628128       0.00000000
Si      -0.16042392      -0.38581236       2.29646980       0.00000000
Si       0.64208664      -1.83420513      -1.35430730       0.00000000
Si       1.42987104       1.78359210      -0.65534307       0.00000000
Si      -1.70121357       1.86377148      -2.53614691       0.00000000
Si      -1.23194754      -2.55928932       2.22628621       0.00000000
Si       0.62723016      -0.88132158      -3.55997944       0.00000000
Si      -3.12196221       2.01078873       0.78128380       0.00000000
Si       2.81349477      -2.51291169      -0.65954793       0.00000000
Si       1.94968494      -0.34024923       3.28423624       0.00000000
