10
Lattice="16.28999089631971 0.0 0.0 0.0 16.28999089631971 0.0 0.0 0.0 34.185847837958455" Properties=species:S:1:pos:R:3:initial_magmoms:R:1 pbc="T T T"
Si       0.39190482      -1.28835981      -1.86900972       0.00000000
Si       0.53789580      -0.51606720       2.18390843       0.00000000
Si      -2.25429165      -0.14271669       0.54058111       0.00000000
Si       1.55519001       1.83671379      -0.10170295       0.00000000
Si      -3.19042908       1.14026742      -1.15797787       0.00000000
Si       3.31218054       0.73223550      -1.22532403       0.00000000
Si       2.16127575      -0.24175989      -2.98975918       0.00000000
Si      -1.37705886      -1.22427495      -3.30526055       0.00000000
Si       0.53532198       3.42186111      -1.53771448       0.00000000
Si       2.23137162      -2.26944135       2.14226013       0.00000000
