10
Lattice="16.28999089631971 0.0 0.0 0.0 16.28999089631971 0.0 0.0 0.0 34.185847837958455" Properties=species:S:1:pos:R:3:initial_magmoms:R:1 pbc="T T T"
Si      -1.20423825       1.40910129       1.47902077       0.00000000
Si       1.50322491      -1.30513851       1.45492999       0.00000000
Si      -1.89299574      -0.94112217      -1.45722185       0.00000000
Si       1.05787260       1.94909850      -1.34010107       0.00000000
Si      -2.45447620       2.77609293       0.00255710       0.00000000
Si      -2.57345347      -2.73941925       0.13199847       0.00000000
Si      -2.56207165       0.06090831       2.84946038       0.00000000
Si       0.15384276      -2.65890593       2.84816132       0.00000000
Si      -0.88700679      -0.93115269      -3.72217227       0.00000000
Si      -3.65163319       0.87355125      -1.23173187       0.00000000
