10
Lattice="16.28999089631971 0.0 0.0 0.0 16.28999089631971 0.0 0.0 0.0 34.185847837958455" Properties=species:S:1:pos:R:3:initial_magmoms:R:1 pbc="T T T"
Si       1.35602847       1.35521397       1.35806775       0.00000000
Si       1.35814617      -1.35786924      -1.35728148       0.00000000
Si      -1.35777150       1.35808101      -1.35745240       0.00000000
Si      -1.35830907      -1.35826020       1.35817031       0.00000000
Si      -0.00102627       2.71321229      -2.71528085       0.00000000
Si       2.71508688       2.71486254      -0.00017093       0.00000000
Si      -2.71479366      -2.71524978      -0.00085465       0.00000000
Si      -2.71511946       2.71509804      -0.00064953       0.00000000
Si       2.71518462      -2.71544526      -0.00041023       0.00000000
Si       2.71508688      -0.00306252      -2.71589620       0.00000000
