10
Lattice="16.28999089631971 0.0 0.0 0.0 16.28999089631971 0.0 0.0 0.0 34.185847837958455" Properties=species:S:1:pos:R:3:initial_magmoms:R:1 pbc="T T T"
Si      -1.97574894      -1.30320000       0.11571916       0.00000000
Si      -0.55144908       1.70502447      -1.56940478       0.00000000
Si       1.70359191      -1.18897452      -1.18744609       0.00000000
Si       0.41492259       1.22985657       2.27079621       0.00000000
Si       1.69332921       2.48568200      -1.88076966       0.00000000
Si       3.18594933       0.64584963      -1.64844250       0.00000000
Si      -2.32932339      -1.34809524       2.49134398       0.00000000
Si      -1.38798945       3.51978749      -0.10806153       0.00000000
Si      -0.42736815      -0.49228380       3.74715872       0.00000000
Si       2.72345994      -2.77412184       0.24856544       0.00000000
