10
Lattice="16.28999089631971 0.0 0.0 0.0 16.28999089631971 0.0 0.0 0.0 34.185847837958455" Properties=species:S:1:pos:R:3:initial_magmoms:R:1 pbc="T T T"
Si      -1.35369900      -1.33459083      -1.36240936       0.00000000
Si      -1.31271336       1.27272141       1.46069372       0.00000000
Si       1.36333511       1.37645613      -1.35840961       0.00000000
Si       1.20932073      -1.52203986       1.39027084       0.00000000
Si       2.19558479       0.34430544       2.50001245       0.00000000
Si       0.54108864       2.19480057       2.57754600       0.00000000
Si       0.00055386      -2.69358734      -2.71722945       0.00000000
Si      -2.73362490      -2.68041524       0.00748670       0.00000000
Si      -2.71365336       0.01918962      -2.71743456       0.00000000
Si      -2.70337437       2.72911257       0.02273360       0.00000000
