10
Lattice="16.28999089631971 0.0 0.0 0.0 16.28999089631971 0.0 0.0 0.0 34.185847837958455" Properties=species:S:1:pos:R:3:initial_magmoms:R:1 pbc="T T T"
Si       1.49659488      -1.37323071      -1.10013538       0.00000000
Si       0.37779768       0.23949558       2.27089877       0.00000000
Si      -2.19121677      -0.65155113      -0.58775761       0.00000000
Si       0.51890166       2.33225559      -0.36961759       0.00000000
Si       0.05497875       2.63326221       2.08797020       0.00000000
Si       2.01632733       1.79942598      -2.18741688       0.00000000
Si      -1.47186666       2.96565966      -1.53039871       0.00000000
Si      -3.38289543      -0.51217389       1.38032275       0.00000000
Si       3.48959397      -0.07356564      -1.24392114       0.00000000
Si      -3.01754331       1.15131204      -1.90175978       0.00000000
