10
Lattice="16.28999089631971 0.0 0.0 0.0 16.28999089631971 0.0 0.0 0.0 34.185847837958455" Properties=species:S:1:pos:R:3:initial_magmoms:R:1 pbc="T T T"
Si      -2.03064624      -0.76997943       0.93894902       0.00000000
Si       0.73096488       1.68365295       1.57743846       0.00000000
Si      -0.81024831       0.75333105      -2.16054679       0.00000000
Si       2.34612231      -1.26684072      -0.55791335       0.00000000
Si       2.66342544       0.95159664      -1.39406547       0.00000000
Si       2.48372068       2.54901033       0.26726511       0.00000000
Si      -0.93512745      -1.32462135       3.23887159       0.00000000
Si       1.29246489       1.09986822      -3.33948060       0.00000000
Si       0.90315018      -2.77230550       2.37779798       0.00000000
Si      -2.89554750      -2.26360953      -0.81020505       0.00000000
