10
Lattice="16.28999089631971 0.0 0.0 0.0 16.28999089631971 0.0 0.0 0.0 34.185847837958455" Properties=species:S:1:pos:R:3:initial_magmoms:R:1 pbc="T T T"
Si       1.31271336      -1.27272141      -1.46069372       0.00000000
Si       1.85380200       0.92207916       1.11685227       0.00000000
Si      -1.39066101       1.45639116      -1.43796012       0.00000000
Si      -1.29277440      -1.47663963       1.53918447       0.00000000
Si       2.52203409      -2.79476127      -0.07042289       0.00000000
Si       3.50829815      -0.92841597       1.03931873       0.00000000
Si       2.67610841       2.71834488      -0.10382248       0.00000000
Si      -2.47871898       0.02541240       2.91417423       0.00000000
Si      -0.04098564      -2.60731224      -2.82310308       0.00000000
Si      -2.81660616      -2.64323169       0.04997974       0.00000000
