10
Lattice="16.28999089631971 0.0 0.0 0.0 16.28999089631971 0.0 0.0 0.0 34.185847837958455" Properties=species:S:1:pos:R:3:initial_magmoms:R:1 pbc="T T T"
Si       1.00164996       1.52585172      -1.48100013       0.00000000
Si       1.10981068      -2.09155455       0.13780323       0.00000000
Si      -0.48531168       0.78705135       2.20362098       0.00000000
Si      -2.01223854      -1.21448466      -0.96287913       0.00000000
Si      -2.47616145      -0.91347804       1.49470866       0.00000000
Si      -0.51481287      -1.74731427      -2.78067842       0.00000000
Si       1.83955055       1.58690664       2.38145586       0.00000000
Si      -1.07396712       2.67512751      -1.87502643       0.00000000
Si       0.91394949       0.09115884      -3.32857531       0.00000000
Si       0.04769712      -2.70956457       2.20895398       0.00000000
