10
Lattice="16.28999089631971 0.0 0.0 0.0 16.28999089631971 0.0 0.0 0.0 34.185847837958455" Properties=species:S:1:pos:R:3:initial_magmoms:R:1 pbc="T T T"
Si       1.35412160       1.35900954      -1.35837542       0.00000000
Si      -1.35829278       1.35715248       1.35714473       0.00000000
Si       1.35719171      -1.35782037       1.35762333       0.00000000
Si      -1.35957969      -1.35638685      -1.35851217       0.00000000
Si       0.00180819       2.71461447      -2.70987949       0.00000000
Si       2.71342923      -0.00180819       2.71374249       0.00000000
Si      -0.00219915       2.71355562       2.71435784       0.00000000
Si       2.71400264       2.71459818      -0.00003419       0.00000000
Si       2.71439034      -2.71520091       0.00013674       0.00000000
Si      -2.71533123       2.71472850       0.00027349       0.00000000
