10
Lattice="16.28999089631971 0.0 0.0 0.0 16.28999089631971 0.0 0.0 0.0 34.185847837958455" Properties=species:S:1:pos:R:3:initial_magmoms:R:1 pbc="T T T"
Si      -0.94268601      -1.03575078       1.92900591       0.00000000
Si       1.38508983      -1.32374169      -1.45631793       0.00000000
Si       1.68389730       1.09985193       1.32538606       0.00000000
Si      -1.32344847       1.38789171      -1.46479603       0.00000000
Si      -2.76728004       2.55824676      -0.03497214       0.00000000
Si       2.66696622       2.66887215      -0.16149404       0.00000000
Si       0.47469060       2.48684769       2.80635200       0.00000000
Si      -2.66699880      -2.72771163       0.00697392       0.00000000
Si       0.03437190      -2.67631668      -2.83387163       0.00000000
Si      -2.67993306       0.03818376      -2.83414511       0.00000000
