10
Lattice="16.28999089631971 0.0 0.0 0.0 16.28999089631971 0.0 0.0 0.0 34.185847837958455" Properties=species:S:1:pos:R:3:initial_magmoms:R:1 pbc="T T T"
Si      -0.36743724      -0.44574327       2.27869315       0.00000000
Si      -2.20001337       0.49135527      -0.69554565       0.00000000
Si       1.60686419       1.51793478      -0.83457957       0.00000000
Si       1.09992102      -1.85686452      -0.99938963       0.00000000
Si       0.88007607      -0.61633215      -3.24129879       0.00000000
Si      -1.25154441      -2.63865420       2.10704591       0.00000000
Si      -3.15268515       1.22922711       1.39297152       0.00000000
Si       3.21161327      -1.82814525       0.15756266       0.00000000
Si      -2.99002950      -1.56548529      -1.54181678       0.00000000
Si       3.68592920       0.48669633      -0.31051023       0.00000000
