10
Lattice="16.28999089631971 0.0 0.0 0.0 16.28999089631971 0.0 0.0 0.0 34.185847837958455" Properties=species:S:1:pos:R:3:initial_magmoms:R:1 pbc="T T T"
Si       1.35694071       1.35480672      -1.35861472       0.00000000
Si       1.35703845      -1.35757602       1.35687124       0.00000000
Si      -1.35814617       1.35786924       1.35728148       0.00000000
Si      -1.35876519      -1.35809730      -1.35813612       0.00000000
Si       2.71313208      -0.00117288       2.71408435       0.00000000
Si       2.71713942      -0.00011403      -2.71015297       0.00000000
Si      -0.00211770       2.71308321       2.71534923       0.00000000
Si       2.71428867       2.71480995      -0.00013674       0.00000000
Si       2.71533123      -2.71472850      -0.00027349       0.00000000
Si      -2.71393029       0.00226431      -2.71623806       0.00000000
