10
Lattice="16.28999089631971 0.0 0.0 0.0 16.28999089631971 0.0 0.0 0.0 34.185847837958455" Properties=species:S:1:pos:R:3:initial_magmoms:R:1 pbc="T T T"
Si       1.35528762       1.35690627      -1.35683706       0.00000000
Si       1.35793316      -1.35708732       1.35731566       0.00000000
Si      -1.35734796       1.35792183       1.35724729       0.00000000
Si      -1.35734796      -1.36000323      -1.35847798       0.00000000
Si       0.00285075      -2.71492398      -2.71001623       0.00000000
Si       2.71363285      -0.00201996       2.71360575       0.00000000
Si      -2.71428867      -2.71480995       0.00013674       0.00000000
Si      -0.00164529       2.71531887       2.71463132       0.00000000
Si       2.71504520      -2.71494027      -0.00017093       0.00000000
Si      -0.00115659      -2.71598283       2.71422109       0.00000000
