10
Lattice="16.28999089631971 0.0 0.0 0.0 16.28999089631971 0.0 0.0 0.0 34.185847837958455" Properties=species:S:1:pos:R:3:initial_magmoms:R:1 pbc="T T T"
Si       1.20920670      -1.38699576      -1.48096594       0.00000000
Si       1.58790033       2.03993154      -0.27721320       0.00000000
Si      -1.73969055       1.27347075      -1.47009484       0.00000000
Si       0.03613122      -1.56657672       2.31349436       0.00000000
Si       2.19227562       0.18202446      -2.96784604       0.00000000
Si      -0.47469060      -2.48684769      -2.80635200       0.00000000
Si      -2.93571864       1.37318184       1.95030371       0.00000000
Si      -1.41737661      -3.52259847      -0.87734609       0.00000000
Si       1.98299799       2.82010851       1.86907809       0.00000000
Si      -0.75388491      -3.62341728       1.46722322       0.00000000
