10
Lattice="16.28999089631971 0.0 0.0 0.0 16.28999089631971 0.0 0.0 0.0 34.185847837958455" Properties=species:S:1:pos:R:3:initial_magmoms:R:1 pbc="T T T"
Si      -2.14654537      -0.93921624       0.34770445       0.00000000
Si       0.93021927      -1.37132478      -1.72583931       0.00000000
Si      -0.58318200       2.17440549      -0.97210931       0.00000000
Si       0.70277829       0.10111203       2.52295117       0.00000000
Si      -1.10093847      -2.88165213       1.14833746       0.00000000
Si      -2.98929223       0.26441928       2.20054426       0.00000000
Si       1.25267982      -3.55653054      -0.72703083       0.00000000
Si      -1.47145631       1.60487451      -3.21894123       0.00000000
Si       2.74303563      -0.19605015      -2.75428693       0.00000000
Si       2.56936794       1.55268135       2.56964906       0.00000000
