10
Lattice="16.28999089631971 0.0 0.0 0.0 16.28999089631971 0.0 0.0 0.0 34.185847837958455" Properties=species:S:1:pos:R:3:initial_magmoms:R:1 pbc="T T T"
Si       1.86658965       1.45156932       0.04669789       0.00000000
Si       0.90381807      -1.52161632       1.76662305       0.00000000
Si      -1.96342718       0.93090834       1.37481882       0.00000000
Si      -0.70277829      -0.10111203      -2.52295117       0.00000000
Si      -3.69207053       0.16330725      -0.32240691       0.00000000
Si       1.79730828       0.11381823       3.24924499       0.00000000
Si      -2.84932367      -1.04032827      -2.17524671       0.00000000
Si      -1.80371677      -2.98276416      -1.37461371       0.00000000
Si       3.38164110       0.97573842       1.78939083       0.00000000
Si       3.30664194       1.54546488      -1.73004417       0.00000000
