10
Lattice="16.28999089631971 0.0 0.0 0.0 16.28999089631971 0.0 0.0 0.0 34.185847837958455" Properties=species:S:1:pos:R:3:initial_magmoms:R:1 pbc="T T T"
Si       1.35602847      -1.35881406      -1.35871728       0.00000000
Si      -1.35996576       1.35397593      -1.35970867       0.00000000
Si       1.35099486       1.35088083       1.37868183       0.00000000
Si      -1.35517976      -1.36591650       1.35967449       0.00000000
Si      -2.71224332       2.71085816       0.00239301       0.00000000
Si       2.71404432       2.71432125       0.00064953       0.00000000
Si      -2.71273202      -2.71624347       0.00085465       0.00000000
Si      -0.00073305       2.71369157      -2.71582783       0.00000000
Si       2.71433754      -0.00073305      -2.71640899       0.00000000
Si      -2.71566545      -0.00109143      -2.71599876       0.00000000
