10
Lattice="16.28999089631971 0.0 0.0 0.0 16.28999089631971 0.0 0.0 0.0 34.185847837958455" Properties=species:S:1:pos:R:3:initial_magmoms:R:1 pbc="T T T"
Si       1.35207000       1.32540327       1.34805129       0.00000000
Si       1.35470898      -1.35907470      -1.35570893       0.00000000
Si      -1.35863976       1.35602847      -1.35721310       0.00000000
Si      -1.33815345      -1.37180859       1.38962131       0.00000000
Si      -0.10694385       2.60236008       2.61053536       0.00000000
Si      -2.71254411       2.71178001       0.00304254       0.00000000
Si       2.71404432      -0.00109143      -2.71316133       0.00000000
Si      -0.00114030       2.71419093      -2.71329807       0.00000000
Si       2.71645524       2.71231758       0.00605090       0.00000000
Si      -0.00081450      -2.71588664      -2.71292203       0.00000000
