10
Lattice="16.28999089631971 0.0 0.0 0.0 16.28999089631971 0.0 0.0 0.0 34.56954931742767" Properties=species:S:1:pos:R:3:initial_magmoms:R:1 pbc="T T T"
Si      -1.36060388      -1.35193805       1.38286917       0.00000000
Si       1.35372782       1.36019871       1.38487420       0.00000000
Si      -1.30797089       1.43915634      -1.48359452       0.00000000
Si       1.34764187      -1.49021083      -1.44849950       0.00000000
Si      -2.71412369      -2.71348136      -0.01195416       0.00000000
Si       2.70170577       2.72727180       0.01526246       0.00000000
Si      -2.70588095       2.72376945       0.01121091       0.00000000
Si       2.71089333      -2.72139536       0.01952144       0.00000000
Si      -0.00166933      -2.71009055       2.74501388       0.00000000
Si       2.71154493       0.00477297       2.74518673       0.00000000
