10
Lattice="16.28999089631971 0.0 0.0 0.0 16.28999089631971 0.0 0.0 0.0 34.56954931742767" Properties=species:S:1:pos:R:3:initial_magmoms:R:1 pbc="T T T"
Si      -1.36325146       1.23118453      -1.46802093       0.00000000
Si      -1.35665889      -1.34987378       1.36787635       0.00000000
Si       1.35889551       1.36853693       1.36528363       0.00000000
Si       1.37564163      -1.33838933      -1.43227254       0.00000000
Si       0.01804932       2.57239073      -2.77374607       0.00000000
Si      -2.69543204      -2.69502053      -0.02532912       0.00000000
Si       2.71098180      -2.68860227       0.00714207       0.00000000
Si       2.65644288       0.12961450      -2.76700501       0.00000000
Si       0.00105885      -2.70254651       2.72573443       0.00000000
Si      -2.71089333       2.72139536      -0.01952144       0.00000000
