10
Lattice="16.28999089631971 0.0 0.0 0.0 16.28999089631971 0.0 0.0 0.0 34.56954931742767" Properties=species:S:1:pos:R:3:initial_magmoms:R:1 pbc="T T T"
Si       1.36883241      -1.24932222      -1.39867783       0.00000000
Si      -1.34100909      -1.35732492       1.34664026       0.00000000
Si      -1.33125138       1.34555817      -1.39049176       0.00000000
Si       1.37600001       1.35764860       1.33951893       0.00000000
Si       2.18093778       0.66775244      -2.61124452       0.00000000
Si       0.37183554       2.32441775      -2.71108752       0.00000000
Si      -2.69606016      -0.00074735       2.70038457       0.00000000
Si      -2.70150102      -2.69864352      -0.01886461       0.00000000
Si      -2.69032608       2.71931993      -0.02769714       0.00000000
Si       0.01643661      -2.71363032       2.70045371       0.00000000
