10
Lattice="16.28999089631971 0.0 0.0 0.0 16.28999089631971 0.0 0.0 0.0 34.56954931742767" Properties=species:S:1:pos:R:3:initial_magmoms:R:1 pbc="T T T"
Si      -1.35723489       1.35665992      -1.36259412       0.00000000
Si       1.35963153      -1.35750562      -1.36159160       0.00000000
Si       1.36681868       1.34953956       1.38271361       0.00000000
Si      -1.35555702      -1.35978622       1.38402725       0.00000000
Si      -2.71381722      -2.71447891      -0.00390636       0.00000000
Si      -2.71533219       2.71604413      -0.00259272       0.00000000
Si      -2.71358916      -0.00044216      -2.71920770       0.00000000
Si       2.71900271       2.71457803      -0.00383722       0.00000000
Si       0.00171948       2.71459432      -2.71934598       0.00000000
Si       0.00160556      -2.71565179      -2.71948426       0.00000000
