10
Lattice="16.28999089631971 0.0 0.0 0.0 16.28999089631971 0.0 0.0 0.0 34.56954931742767" Properties=species:S:1:pos:R:3:initial_magmoms:R:1 pbc="T T T"
Si       0.28411389      -1.85830523      -1.47311303       0.00000000
Si       1.95310584       1.23605262       0.60299699       0.00000000
Si      -0.29523996      -1.59784442       1.78710842       0.00000000
Si      -1.94298975       1.10662042      -0.93880578       0.00000000
Si      -0.73275678      -3.29368229       0.13001615       0.00000000
Si      -1.54004031       3.42381591      -0.48100098       0.00000000
Si       2.75993325      -2.14432505      -1.46941408       0.00000000
Si       1.53609813       2.33606745       2.67609945       0.00000000
Si      -1.64369358      -1.68136325      -3.07641505       0.00000000
Si      -3.90040755      -0.26205071      -0.38987560       0.00000000
