10
Lattice="16.28999089631971 0.0 0.0 0.0 16.28999089631971 0.0 0.0 0.0 34.56954931742767" Properties=species:S:1:pos:R:3:initial_magmoms:R:1 pbc="T T T"
Si      -0.79741179      -1.58733018       1.56852504       0.00000000
Si      -2.08860606       1.09856502      -0.46409646       0.00000000
Si       1.50384393       1.66676022       0.89272454       0.00000000
Si       1.54549746      -1.10964222      -1.57239683       0.00000000
Si       1.21441950      -2.80939783       1.74700772       0.00000000
Si       0.63244296       3.59181468      -0.18913011       0.00000000
Si       3.60020403       0.58837851       0.68319838       0.00000000
Si      -1.67119110       3.29828517       0.35406152       0.00000000
Si       1.77614757      -3.26765003      -0.45268850       0.00000000
Si       2.94185997      -1.25447661       2.06577371       0.00000000
