10
Lattice="16.28999089631971 0.0 0.0 0.0 16.28999089631971 0.0 0.0 0.0 34.56954931742767" Properties=species:S:1:pos:R:3:initial_magmoms:R:1 pbc="T T T"
Si       0.70991820       2.01406302       0.89746057       0.00000000
Si      -2.20082787      -0.73832796       0.15106901       0.00000000
Si       1.48577832      -1.60621029       0.88722798       0.00000000
Si       0.24625593       0.00814500      -2.35678034       0.00000000
Si      -0.22160916      -2.29662936      -2.55534794       0.00000000
Si      -3.25404153       1.35233064      -0.34991317       0.00000000
Si       1.54204398      -3.00917025      -1.07245173       0.00000000
Si       2.96460081       1.92275757       0.39713520       0.00000000
Si       3.44715948      -0.24863427       1.25636183       0.00000000
Si      -2.46288510      -2.19638070      -1.75547726       0.00000000
