10
Lattice="16.28999089631971 0.0 0.0 0.0 16.28999089631971 0.0 0.0 0.0 34.56954931742767" Properties=species:S:1:pos:R:3:initial_magmoms:R:1 pbc="T T T"
Si      -1.57937156       1.54590471       0.76619992       0.00000000
Si      -0.55323121      -2.08103121       1.16288572       0.00000000
Si       1.77859107       1.18982160       1.19742072       0.00000000
Si      -0.31448822       0.68071023      -2.44856255       0.00000000
Si      -0.66088204       3.41803296      -0.33373462       0.00000000
Si       1.74495222       3.02927211      -0.32025248       0.00000000
Si      -1.93131701      -1.06152156       2.84555947       0.00000000
Si      -1.32824492       1.26408771       3.10137428       0.00000000
Si       1.72392183      -2.75225089       1.80746990       0.00000000
Si      -2.11125635      -3.20017050      -0.49655728       0.00000000
