10
Lattice="16.28999089631971 0.0 0.0 0.0 16.28999089631971 0.0 0.0 0.0 34.56954931742767" Properties=species:S:1:pos:R:3:initial_magmoms:R:1 pbc="T T T"
Si      -0.81301761      -1.83808215       1.22336725       0.00000000
Si       1.81240911       0.90240084       1.24707161       0.00000000
Si       0.36763272      -0.75554649      -2.24272086       0.00000000
Si      -1.73757285       1.93280850      -0.38567820       0.00000000
Si      -1.03003299       1.20073590      -3.04511511       0.00000000
Si       0.46722978       2.17723995       2.66644278       0.00000000
Si      -2.24754759      -0.55475595       2.64149047       0.00000000
Si      -3.50736243       0.86077989       1.08007639       0.00000000
Si      -0.86811039       3.52745289       1.22702817       0.00000000
Si       2.84050359      -0.58267701      -2.53673504       0.00000000
