10
Lattice="16.28999089631971 0.0 0.0 0.0 16.28999089631971 0.0 0.0 0.0 34.56954931742767" Properties=species:S:1:pos:R:3:initial_magmoms:R:1 pbc="T T T"
Si       1.35459495      -1.35725022       1.35640616       0.00000000
Si      -1.35698958       1.35588186       1.35944829       0.00000000
Si       1.35700587       1.35855342      -1.35765067       0.00000000
Si      -1.35845568      -1.35692442      -1.35785809       0.00000000
Si       2.71456560      -2.71292031      -0.00141735       0.00000000
Si      -0.00066789      -2.71414206      -2.71571617       0.00000000
Si       2.71480995       0.00073305      -2.71543962       0.00000000
Si      -2.71583622       0.00133578      -2.71523220       0.00000000
Si      -0.00122175       2.71601541      -2.71530134       0.00000000
Si      -2.71588509       2.71551042      -0.00020742       0.00000000
