10
Lattice="16.28999089631971 0.0 0.0 0.0 16.28999089631971 0.0 0.0 0.0 34.56954931742767" Properties=species:S:1:pos:R:3:initial_magmoms:R:1 pbc="T T T"
Si      -0.03893310       1.18351737       2.01132664       0.00000000
Si       2.32572330      -0.31227930      -0.24074248       0.00000000
Si      -0.54649692       1.38520386      -1.84760517       0.00000000
Si      -0.99132795      -2.20128399      -0.27576145       0.00000000
Si      -1.97265384      -0.26054226      -2.65124393       0.00000000
Si       2.07560664       2.21542371       1.69933629       0.00000000
Si      -0.83056194      -2.34510840      -2.62680324       0.00000000
Si       2.70918990      -2.08865493       1.31136202       0.00000000
Si       2.64562632      -0.31152996      -2.54100157       0.00000000
Si       1.28767563       1.56330243      -3.30346798       0.00000000
