10
Lattice="16.28999089631971 0.0 0.0 0.0 16.28999089631971 0.0 0.0 0.0 34.56954931742767" Properties=species:S:1:pos:R:3:initial_magmoms:R:1 pbc="T T T"
Si       1.28080125       1.46800383      -1.33473247       0.00000000
Si       1.33534017      -1.35021294       1.43941461       0.00000000
Si      -1.37564163       1.33838933       1.43227254       0.00000000
Si      -0.86946246      -1.59464439      -1.61270637       0.00000000
Si      -0.58067334       2.08969327      -2.76885102       0.00000000
Si       2.68051950      -2.62505205       0.02004344       0.00000000
Si      -2.63925204      -2.66667300      -0.14695178       0.00000000
Si      -2.73889309       2.56957387      -0.03574839       0.00000000
Si       2.70558981       2.69398874       0.06778747       0.00000000
Si      -2.08955088       0.13822065      -3.21058097       0.00000000
