10
Lattice="16.28999089631971 0.0 0.0 0.0 16.28999089631971 0.0 0.0 0.0 34.56954931742767" Properties=species:S:1:pos:R:3:initial_magmoms:R:1 pbc="T T T"
Si      -2.08495288       1.04560623      -0.17340096       0.00000000
Si      -0.34865487      -0.92461781       2.17618892       0.00000000
Si       0.03718030      -1.80422894      -1.58442704       0.00000000
Si       1.95741780       1.36867114      -0.54893018       0.00000000
Si       1.76066718       0.88616297      -2.93022035       0.00000000
Si      -1.89457165       2.57689229      -1.89213077       0.00000000
Si       1.02694929      -3.56757257      -0.43142822       0.00000000
Si       2.25671397      -1.41931253      -2.68653946       0.00000000
Si      -3.79721107      -0.58115945       0.26124223       0.00000000
Si      -2.34054298       2.76219104       1.39042262       0.00000000
