10
Lattice="16.28999089631971 0.0 0.0 0.0 16.28999089631971 0.0 0.0 0.0 34.56954931742767" Properties=species:S:1:pos:R:3:initial_magmoms:R:1 pbc="T T T"
Si      -1.93626198      -1.14057693      -0.57126212       0.00000000
Si      -0.30924936       0.67056156       2.21324749       0.00000000
Si      -0.05390361       1.72742418      -1.58681234       0.00000000
Si       1.87317081      -1.26768780      -1.58961247       0.00000000
Si       1.45748259       2.37061937       2.26444502       0.00000000
Si       0.59333067      -1.23245253       3.36285850       0.00000000
Si      -2.78506872       0.95658138       2.20954855       0.00000000
Si      -1.13656959      -3.25568682      -1.63479490       0.00000000
Si      -3.76137729       0.18981108      -1.37255015       0.00000000
Si       1.26359901       3.67786728      -1.14878134       0.00000000
