10
Lattice="16.28999089631971 0.0 0.0 0.0 16.28999089631971 0.0 0.0 0.0 34.56954931742767" Properties=species:S:1:pos:R:3:initial_magmoms:R:1 pbc="T T T"
Si      -1.79330094       0.95040537       1.13868702       0.00000000
Si       0.96565491      -1.85065803       1.08140525       0.00000000
Si      -1.13062374       0.45455616      -2.03009792       0.00000000
Si       1.03392630       1.16378596      -2.29358717       0.00000000
Si      -0.36851238       2.17639028       2.54120696       0.00000000
Si       0.42349113       3.20105735      -0.97942502       0.00000000
Si       2.33157141      -0.41849010       2.53302088       0.00000000
Si       1.33457454       3.15524987       1.22061120       0.00000000
Si      -1.55110122      -1.60961490      -2.95849825       0.00000000
Si       3.14367678       1.49858456       1.32045420       0.00000000
