10
Lattice="16.28999089631971 0.0 0.0 0.0 16.28999089631971 0.0 0.0 0.0 34.56954931742767" Properties=species:S:1:pos:R:3:initial_magmoms:R:1 pbc="T T T"
Si       0.42047748       2.06417106       0.92840034       0.00000000
Si      -0.91131147       0.73394595      -2.02193950       0.00000000
Si      -1.68492357      -1.23470055       1.15977446       0.00000000
Si       1.88639829      -1.46263023      -0.20866192       0.00000000
Si      -2.32213950       2.50851357      -1.33607926       0.00000000
Si       1.55110122       1.60961490       2.95849825       0.00000000
Si      -0.28725786      -3.19098294       1.96216872       0.00000000
Si       2.58502752       2.77340086       0.66491108       0.00000000
Si      -1.36291914       3.61442913       0.47809713       0.00000000
Si       1.92533139      -2.64614760      -2.21998856       0.00000000
