10
Lattice="16.28999089631971 0.0 0.0 0.0 16.28999089631971 0.0 0.0 0.0 34.56954931742767" Properties=species:S:1:pos:R:3:initial_magmoms:R:1 pbc="T T T"
Si      -0.49777353       1.11671208       1.98173509       0.00000000
Si       1.76189382      -1.43552204       0.54682144       0.00000000
Si      -1.72744047      -1.55492122      -0.31876599       0.00000000
Si       0.65834406       1.84285512      -1.38257533       0.00000000
Si      -1.16571240      -2.01317342      -2.51846221       0.00000000
Si      -1.43801604       2.92123683      -1.17304917       0.00000000
Si       1.75208724       1.50387651       2.67367958       0.00000000
Si       3.22470324      -0.09182673       1.69926715       0.00000000
Si      -1.44930501       3.13922961       1.18857091       0.00000000
Si      -1.35439947      -3.27604022       1.30095658       0.00000000
