10
Lattice="16.28999089631971 0.0 0.0 0.0 16.28999089631971 0.0 0.0 0.0 34.56954931742767" Properties=species:S:1:pos:R:3:initial_magmoms:R:1 pbc="T T T"
Si       1.44220257      -1.23382089      -1.38079154       0.00000000
Si      -1.33791399      -1.36469475       1.36423617       0.00000000
Si       1.37401263       1.35040842       1.36662147       0.00000000
Si      -1.49970627       1.17706653      -1.49874982       0.00000000
Si       0.20036700       2.42874126      -2.65000011       0.00000000
Si       2.08715625       0.61667424      -3.00627136       0.00000000
Si       0.02295261      -2.56173282      -2.76328186       0.00000000
Si      -2.07107802      -0.76105251      -3.06414082       0.00000000
Si      -2.70622512       2.70231552      -0.02210033       0.00000000
Si      -2.69558775      -0.00881289       2.72105717       0.00000000
