10
Lattice="16.28999089631971 0.0 0.0 0.0 16.28999089631971 0.0 0.0 0.0 34.56954931742767" Properties=species:S:1:pos:R:3:initial_magmoms:R:1 pbc="T T T"
Si       1.35397593      -1.35747828      -1.35782352       0.00000000
Si      -1.35728280      -1.35692442       1.35713213       0.00000000
Si       1.35708732       1.35808101       1.35695928       0.00000000
Si      -1.35659862       1.35987291      -1.35796180       0.00000000
Si       2.71524978      -2.71376739      -0.00010371       0.00000000
Si      -2.71515204      -2.71393029      -0.00041483       0.00000000
Si       2.71498914       0.00055386       2.71416054       0.00000000
Si       2.71397916       2.71521720      -0.00027656       0.00000000
Si      -0.00004887      -2.71498914       2.71429882       0.00000000
Si      -2.71511946       0.00057015       2.71460995       0.00000000
