10
Lattice="16.28999089631971 0.0 0.0 0.0 16.28999089631971 0.0 0.0 0.0 34.56954931742767" Properties=species:S:1:pos:R:3:initial_magmoms:R:1 pbc="T T T"
Si       2.11350044      -0.97611635       0.08535226       0.00000000
Si      -1.50705699      -1.67265720      -0.70321417       0.00000000
Si      -0.52689516       0.99957069       2.07856445       0.00000000
Si      -0.13505225       1.58874741      -1.82755482       0.00000000
Si      -3.18868998      -0.13317075      -1.30299618       0.00000000
Si      -1.12002288       3.11573943       1.24982818       0.00000000
Si       3.47904227       0.82606590      -0.62653886       0.00000000
Si      -0.06484234      -2.79691874      -2.31619567       0.00000000
Si       1.91697788      -2.99901248      -1.11780700       0.00000000
Si       2.20286738       2.12555178      -2.24297732       0.00000000
