10
Lattice="16.28999089631971 0.0 0.0 0.0 16.28999089631971 0.0 0.0 0.0 34.56954931742767" Properties=species:S:1:pos:R:3:initial_magmoms:R:1 pbc="T T T"
Si      -1.78966827      -1.40941080      -0.36121742       0.00000000
Si      -1.21503852       1.93557780       0.49545106       0.00000000
Si       1.23386976       0.21888873      -2.08133002       0.00000000
Si      -0.24322599      -1.50206832       2.63150470       0.00000000
Si      -1.50943140      -1.75814712      -2.62507476       0.00000000
Si       0.43776117       3.11909517       1.78420458       0.00000000
Si       0.74525121      -1.84945257      -3.12540013       0.00000000
Si      -1.33139799      -3.40148232       0.79475438       0.00000000
Si       2.02821903       1.68772545       3.04564541       0.00000000
Si      -1.51425324       3.49106103      -1.38136539       0.00000000
