10
Lattice="16.28999089631971 0.0 0.0 0.0 16.28999089631971 0.0 0.0 0.0 34.56954931742767" Properties=species:S:1:pos:R:3:initial_magmoms:R:1 pbc="T T T"
Si      -1.35679410      -1.33905429      -1.36925222       0.00000000
Si       1.35754344      -1.35599589       1.35975941       0.00000000
Si      -1.35790182       1.35883035       1.35975941       0.00000000
Si       1.36102950       1.35591444      -1.39717406       0.00000000
Si      -2.71386513      -2.71441899      -0.00259272       0.00000000
Si       2.71505430      -2.71494027      -0.00089881       0.00000000
Si      -2.71546155       2.71569028      -0.00017285       0.00000000
Si      -0.00053757      -2.71432125       2.71747922       0.00000000
Si       2.71454931       2.71745775      -0.00235073       0.00000000
Si       2.71503801       0.00094482       2.71744465       0.00000000
