10
Lattice="16.28999089631971 0.0 0.0 0.0 16.28999089631971 0.0 0.0 0.0 34.56954931742767" Properties=species:S:1:pos:R:3:initial_magmoms:R:1 pbc="T T T"
Si      -1.36883241       1.24932222       1.39867783       0.00000000
Si       0.81210537       1.91707466      -1.21256668       0.00000000
Si       1.36583505      -1.44777375       1.36911739       0.00000000
Si      -1.36591650      -1.43216793      -1.45161564       0.00000000
Si      -2.33157141       0.41849010      -2.53302088       0.00000000
Si      -2.70008379       2.59488038       0.00818607       0.00000000
Si       0.00716760       2.60697082       2.73819676       0.00000000
Si      -2.72515410      -2.72416041      -0.03955796       0.00000000
Si      -2.70984150      -0.10800270       2.74531809       0.00000000
Si       2.72262915      -0.10871946       2.73836961       0.00000000
