10
Lattice="16.28999089631971 0.0 0.0 0.0 16.28999089631971 0.0 0.0 0.0 34.56954931742767" Properties=species:S:1:pos:R:3:initial_magmoms:R:1 pbc="T T T"
Si      -1.02265362      -1.65332097      -1.52500195       0.00000000
Si       1.64745657       1.05120512      -1.51317916       0.00000000
Si      -0.03329676      -1.26203517       2.15188651       0.00000000
Si      -0.55726461       2.00791584       1.40874449       0.00000000
Si      -2.64699468       2.66822774      -0.29235484       0.00000000
Si       0.23315877       2.32519455      -3.00025829       0.00000000
Si       2.76231159       2.65327352      -0.13291999       0.00000000
Si       1.27632150       1.82326869       3.14600359       0.00000000
Si      -2.47767642      -0.39550491      -3.00292015       0.00000000
Si       1.68474438      -3.02340771       2.02000360       0.00000000
