10
Lattice="16.28999089631971 0.0 0.0 0.0 16.28999089631971 0.0 0.0 0.0 34.56954931742767" Properties=species:S:1:pos:R:3:initial_magmoms:R:1 pbc="T T T"
Si       1.26525244       1.44622620      -1.37733946       0.00000000
Si      -1.28368979      -1.34025975      -1.50068368       0.00000000
Si       1.29200063      -1.37687967       1.51991677       0.00000000
Si      -1.41942925       1.32851466       1.49370958       0.00000000
Si       2.60956840      -2.75972148       0.13728267       0.00000000
Si      -2.71767603      -2.66499513       0.02105978       0.00000000
Si       2.26933546       0.12512349      -3.13976521       0.00000000
Si       2.73192259       2.76051969       0.08824228       0.00000000
Si      -1.47758349      -0.00988803      -3.62035135       0.00000000
Si       2.65905742      -0.02730204       2.88645182       0.00000000
