10
Lattice="16.28999089631971 0.0 0.0 0.0 16.28999089631971 0.0 0.0 0.0 34.56954931742767" Properties=species:S:1:pos:R:3:initial_magmoms:R:1 pbc="T T T"
Si      -2.28766986       0.07900650      -0.27766278       0.00000000
Si       0.69094035      -0.26065629       2.20557305       0.00000000
Si       0.82862343       1.91952468      -1.03179792       0.00000000
Si       0.65603088      -1.86808833      -1.27575536       0.00000000
Si       1.96672428       0.94293036      -2.80749838       0.00000000
Si      -2.83623561      -2.22809733      -0.62104230       0.00000000
Si       2.70392823      -1.25027379      -2.15714108       0.00000000
Si       3.04346070       0.04204449       2.14697763       0.00000000
Si      -2.66071086       1.80012549      -1.89738534       0.00000000
Si      -0.93327039       3.35504672      -1.57861935       0.00000000
