10
Lattice="16.28999089631971 0.0 0.0 0.0 16.28999089631971 0.0 0.0 0.0 34.56954931742767" Properties=species:S:1:pos:R:3:initial_magmoms:R:1 pbc="T T T"
Si      -1.35635427      -1.35710207      -1.35661358       0.00000000
Si       1.35895437       1.35793440      -1.35675186       0.00000000
Si       1.35723489      -1.35665992       1.36259412       0.00000000
Si      -1.35809730       1.35938421       1.36000140       0.00000000
Si      -2.71334385       2.71397916      -0.00010371       0.00000000
Si      -2.71406061       0.00104908      -2.71436796       0.00000000
Si      -2.71336014      -2.71519181       0.00176305       0.00000000
Si       0.00198738      -2.71475198      -2.71429882       0.00000000
Si       0.00148239       2.71547784      -2.71412597       0.00000000
Si       2.71518203       2.71469592       0.00062225       0.00000000
