10
Lattice="16.28999089631971 0.0 0.0 0.0 16.28999089631971 0.0 0.0 0.0 34.56954931742767" Properties=species:S:1:pos:R:3:initial_magmoms:R:1 pbc="T T T"
Si      -0.18547794      -2.03847847      -1.10432487       0.00000000
Si       2.08199232      -0.08889453       1.05623860       0.00000000
Si       0.16221582       1.78124634      -1.50605783       0.00000000
Si      -2.12001318       0.70969014       0.77498059       0.00000000
Si      -0.46652931       0.07506432      -3.24310951       0.00000000
Si      -1.70642637       2.85371478      -0.33121104       0.00000000
Si       2.43393777       2.51853174      -1.02312095       0.00000000
Si       3.46007812      -1.10840418      -0.62643515       0.00000000
Si       1.90205298      -2.22754347      -2.28587816       0.00000000
Si       1.89161109      -1.62018059       2.77496841       0.00000000
