10
Lattice="16.28999089631971 0.0 0.0 0.0 16.28999089631971 0.0 0.0 0.0 34.56954931742767" Properties=species:S:1:pos:R:3:initial_magmoms:R:1 pbc="T T T"
Si       1.46280942       1.34369531       1.15244571       0.00000000
Si       1.13810085      -0.97659432      -1.77570046       0.00000000
Si      -0.82862343      -1.91952468       1.03179792       0.00000000
Si      -1.76189382       1.43552204      -0.54682144       0.00000000
Si       2.59476894       2.36675618      -0.64652007       0.00000000
Si      -0.78659523      -1.69192080      -3.05041874       0.00000000
Si      -3.48933429      -0.11939918      -0.86558743       0.00000000
Si       3.14444241      -0.19579114       1.75222773       0.00000000
Si      -0.00980658       2.93939855       2.12685814       0.00000000
Si       2.85035904       0.65017137      -2.21034365       0.00000000
