10
Lattice="16.28999089631971 0.0 0.0 0.0 16.28999089631971 0.0 0.0 0.0 34.56954931742767" Properties=species:S:1:pos:R:3:initial_magmoms:R:1 pbc="T T T"
Si      -1.68163299       1.53948645      -0.59978202       0.00000000
Si       1.50705699       1.67265720       0.70321417       0.00000000
Si      -0.92960514      -1.68168905       1.42654782       0.00000000
Si       1.44221464      -1.12426154      -1.61298150       0.00000000
Si      -0.54967347       2.56254732      -2.39874780       0.00000000
Si      -3.14444241       0.19579114      -1.75222773       0.00000000
Si      -0.15146442      -0.91658033       3.52955296       0.00000000
Si       0.58099914      -3.30199019      -1.45188731       0.00000000
Si       3.42403487      -1.32635528      -0.41459284       0.00000000
Si       1.37200474       3.26140461      -1.12434065       0.00000000
