10
Lattice="16.28999089631971 0.0 0.0 0.0 16.28999089631971 0.0 0.0 0.0 34.56954931742767" Properties=species:S:1:pos:R:3:initial_magmoms:R:1 pbc="T T T"
Si       1.35765747      -1.35769005      -1.35720126       0.00000000
Si      -1.35790182       1.35752715      -1.35720126       0.00000000
Si       1.35845568       1.35674523       1.35744325       0.00000000
Si      -1.35716877      -1.35918873       1.35682100       0.00000000
Si       2.71420722      -0.00040725      -2.71419511       0.00000000
Si       0.00026064      -2.71432125      -2.71426425       0.00000000
Si      -0.00100998       2.71466334      -2.71443710       0.00000000
Si      -2.71498914      -0.00055386      -2.71416054       0.00000000
Si       2.71460110       2.71469592       0.00010371       0.00000000
Si       2.71369886       0.00066789       2.71609644       0.00000000
