10
Lattice="16.28999089631971 0.0 0.0 0.0 16.28999089631971 0.0 0.0 0.0 34.56954931742767" Properties=species:S:1:pos:R:3:initial_magmoms:R:1 pbc="T T T"
Si       1.35454608       1.35024552      -1.37365638       0.00000000
Si      -1.36177884      -1.36533006      -1.36936975       0.00000000
Si       1.37430585      -1.26456012       1.45786785       0.00000000
Si      -1.47825234       1.24032060       1.45233672       0.00000000
Si      -0.34174791      -2.34892026       2.64194471       0.00000000
Si       2.70247842       2.69925300      -0.00221245       0.00000000
Si       2.70827766      -2.72044629       0.00646451       0.00000000
Si      -2.72373687       2.70668124       0.00798557       0.00000000
Si       0.00030951       2.70609480      -2.73172188       0.00000000
Si       2.71469592      -0.01040931      -2.73123791       0.00000000
