10
Lattice="16.28999089631971 0.0 0.0 0.0 16.28999089631971 0.0 0.0 0.0 34.56954931742767" Properties=species:S:1:pos:R:3:initial_magmoms:R:1 pbc="T T T"
Si      -1.35524318       1.35607734      -1.35865319       0.00000000
Si       1.35765826      -1.35913986      -1.35854948       0.00000000
Si       1.35761264       1.35581670       1.37476261       0.00000000
Si      -1.36166144      -1.35395964       1.37904923       0.00000000
Si       0.09545611      -2.59357977       2.82668449       0.00000000
Si      -2.71369886      -0.00066789      -2.71609644       0.00000000
Si       0.00090225       2.71402803      -2.71599273       0.00000000
Si      -2.71562108      -2.71445157       0.00082967       0.00000000
Si       2.72008218       2.71119357      -0.00065682       0.00000000
Si       0.00143059      -2.71590138      -2.71592359       0.00000000
