10
Lattice="16.28999089631971 0.0 0.0 0.0 16.28999089631971 0.0 0.0 0.0 34.56954931742767" Properties=species:S:1:pos:R:3:initial_magmoms:R:1 pbc="T T T"
Si       1.34174770       1.36119240       1.35723583       0.00000000
Si      -1.35923760       1.35697329      -1.35955200       0.00000000
Si       1.35541338      -1.36135530      -1.35996683       0.00000000
Si      -1.37055915      -1.36485765       1.36968088       0.00000000
Si       2.67063866      -0.05201397       2.67921071       0.00000000
Si      -0.07297920       2.57404806       2.82727217       0.00000000
Si       2.71612034       2.71270854       0.00055311       0.00000000
Si       2.71328588      -0.00144981      -2.71658041       0.00000000
Si      -0.00178181       2.71324611      -2.71675326       0.00000000
Si      -2.71720458       2.71441899      -0.00117537       0.00000000
