10
Lattice="16.28999089631971 0.0 0.0 0.0 16.28999089631971 0.0 0.0 0.0 34.56954931742767" Properties=species:S:1:pos:R:3:initial_magmoms:R:1 pbc="T T T"
Si       0.71937684      -1.96333596      -1.14470213       0.00000000
Si      -2.13128586      -1.08815571      -0.01980836       0.00000000
Si       1.39985413       0.31099239       2.02187036       0.00000000
Si       0.47862368       1.23748614      -2.14618253       0.00000000
Si      -2.95836174       1.16939394       0.19891330       0.00000000
Si       1.79761520       2.64143979      -0.65319200       0.00000000
Si      -0.14819013       1.10692179       3.64128180       0.00000000
Si      -0.19911267      -3.83546421      -0.04476759       0.00000000
Si       2.82130487       2.23879986       1.63787159       0.00000000
Si      -0.23148090       3.90704247      -0.62564005       0.00000000
