10
Lattice="16.28999089631971 0.0 0.0 0.0 16.28999089631971 0.0 0.0 0.0 34.56954931742767" Properties=species:S:1:pos:R:3:initial_magmoms:R:1 pbc="T T T"
Si      -1.51870041      -1.66215015      -0.86040199       0.00000000
Si       0.82707588      -2.25754965      -0.21872166       0.00000000
Si       0.54825624       1.88144613      -1.45088480       0.00000000
Si      -2.63687859       0.26485911       0.07539623       0.00000000
Si      -0.81218682       0.86284872       2.54438939       0.00000000
Si       2.95836174      -1.16939394      -0.19891330       0.00000000
Si      -0.33045894      -2.93935131       1.73338731       0.00000000
Si       1.38525273       1.76692743       2.85147087       0.00000000
Si      -1.40680440      -1.36428750       3.31280176       0.00000000
Si       2.72688084       2.73764853      -0.82455335       0.00000000
