10
Lattice="16.28999089631971 0.0 0.0 0.0 16.28999089631971 0.0 0.0 0.0 34.56954931742767" Properties=species:S:1:pos:R:3:initial_magmoms:R:1 pbc="T T T"
Si       1.86474888       0.76318650       1.48727069       0.00000000
Si      -0.64495368      -1.85049513       1.62547982       0.00000000
Si      -1.88678925       1.81206702       0.35627125       0.00000000
Si       0.69108696      -0.33935328      -2.57857869       0.00000000
Si      -0.15345180       3.04567614      -1.75333395       0.00000000
Si      -2.08715625      -0.61667424       3.00627136       0.00000000
Si       0.65405979       2.07966285       3.02732769       0.00000000
Si      -2.06420364      -3.17840706       0.24298950       0.00000000
Si      -0.68916474       3.38978610       1.69919943       0.00000000
Si      -3.58686252       0.56039229       1.50752154       0.00000000
