10
Lattice="16.28999089631971 0.0 0.0 0.0 16.28999089631971 0.0 0.0 0.0 34.56954931742767" Properties=species:S:1:pos:R:3:initial_magmoms:R:1 pbc="T T T"
Si       1.35677781      -1.35594702       1.35692471       0.00000000
Si      -1.35791811      -1.35684297      -1.35865319       0.00000000
Si       1.35700587       1.35808973      -1.35837663       0.00000000
Si      -1.35860229       1.35862125       1.35906802       0.00000000
Si       2.71474479      -2.71339272      -0.00145192       0.00000000
Si      -2.71524978      -2.71306692      -0.00159020       0.00000000
Si       2.71336014       2.71519181      -0.00176305       0.00000000
Si      -0.00022806      -2.71482624      -2.71602730       0.00000000
Si       2.71534752       0.00043983      -2.71606187       0.00000000
Si      -2.71557558       0.00066789      -2.71626929       0.00000000
