10
Lattice="16.28999089631971 0.0 0.0 0.0 16.28999089631971 0.0 0.0 0.0 34.56954931742767" Properties=species:S:1:pos:R:3:initial_magmoms:R:1 pbc="T T T"
Si       2.04789735       0.61781454      -0.88138572       0.00000000
Si       0.23063382      -2.09310210       1.03850441       0.00000000
Si      -0.65603088       1.86808833       1.27575536       0.00000000
Si      -1.25670834      -0.07218099      -2.00828452       0.00000000
Si      -2.13431580      -2.23484139       1.41717947       0.00000000
Si       1.31069340       2.81101869      -1.53174302       0.00000000
Si      -0.00615762      -1.84578732      -2.97640529       0.00000000
Si      -0.61400268       2.09569221      -2.80646129       0.00000000
Si      -3.49226649      -0.36000900       0.65471306       0.00000000
Si       2.19128193      -0.94170861      -2.66932381       0.00000000
