10
Lattice="16.28999089631971 0.0 0.0 0.0 16.28999089631971 0.0 0.0 0.0 34.56954931742767" Properties=species:S:1:pos:R:3:initial_magmoms:R:1 pbc="T T T"
Si       1.34592052      -1.26322434      -1.44079048       0.00000000
Si       1.31899153       1.40395365       1.49299053       0.00000000
Si      -1.63839023       1.35695700      -1.22791108       0.00000000
Si      -0.47862368      -1.23748614       2.14618253       0.00000000
Si      -0.71010458       2.66955633       1.52054248       0.00000000
Si       0.24075317      -3.20082210       1.00148040       0.00000000
Si      -2.88872918       1.81335393       0.89421103       0.00000000
Si      -0.28565234      -2.35020717      -2.72466969       0.00000000
Si       2.70954828       2.49092019      -0.15822492       0.00000000
Si       2.40132519       0.32391036      -2.82478316       0.00000000
