10
Lattice="16.28999089631971 0.0 0.0 0.0 16.28999089631971 0.0 0.0 0.0 34.56954931742767" Properties=species:S:1:pos:R:3:initial_magmoms:R:1 pbc="T T T"
Si      -1.11537467      -1.61844408       1.33327912       0.00000000
Si       1.46619774       1.35930995       1.29072398       0.00000000
Si       1.41079545      -1.26600993      -1.49122748       0.00000000
Si      -1.29200877       1.43883610      -1.48217026       0.00000000
Si       2.87513613      -2.57108328      -0.09973321       0.00000000
Si      -2.72841929      -2.76555330      -0.04034269       0.00000000
Si       0.06068025      -2.62689282      -2.86706174       0.00000000
Si      -2.56308245       2.92621247      -0.04162176       0.00000000
Si      -2.65882745       0.08929654      -2.86488386       0.00000000
Si       2.70747945       2.85943976      -0.05973621       0.00000000
