10
Lattice="16.28999089631971 0.0 0.0 0.0 16.28999089631971 0.0 0.0 0.0 34.56954931742767" Properties=species:S:1:pos:R:3:initial_magmoms:R:1 pbc="T T T"
Si       1.36355445       1.17877698       1.56579404       0.00000000
Si       1.53629361      -1.20495501      -1.42077470       0.00000000
Si      -1.39055675      -1.08696654       1.65121545       0.00000000
Si      -1.43879633       1.60616142      -1.14487497       0.00000000
Si      -2.48038056       2.14584912       0.87913870       0.00000000
Si      -0.30822309      -2.16700983      -2.66655825       0.00000000
Si       1.65486852      -2.66593995       1.53876064       0.00000000
Si      -2.70954828      -2.49092019       0.15822492       0.00000000
Si       2.55171447       0.65352222      -2.57788730       0.00000000
Si      -3.41965286       0.17863614       1.67876739       0.00000000
