10
Lattice="16.28999089631971 0.0 0.0 0.0 16.28999089631971 0.0 0.0 0.0 34.56954931742767" Properties=species:S:1:pos:R:3:initial_magmoms:R:1 pbc="T T T"
Si      -0.49604679       2.30547550      -0.24368089       0.00000000
Si       0.95149890      -0.94371228      -1.97879668       0.00000000
Si      -2.21953368      -0.38491641       1.10211242       0.00000000
Si       1.92780747      -0.17694198       1.60330202       0.00000000
Si      -1.22976468      -2.14826004       2.25511124       0.00000000
Si      -0.29929617       2.78798367       2.13760928       0.00000000
Si       0.91093680      -1.61231904       3.20643120       0.00000000
Si      -0.77892264      -3.61209573       0.39768832       0.00000000
Si       2.77661421      -2.27410029      -1.17750865       0.00000000
Si      -2.25671397       1.41931253       2.68653946       0.00000000
