10
Lattice="16.28999089631971 0.0 0.0 0.0 16.28999089631971 0.0 0.0 0.0 34.56954931742767" Properties=species:S:1:pos:R:3:initial_magmoms:R:1 pbc="T T T"
Si       1.97200224      -0.20908215      -1.19759357       0.00000000
Si      -1.98182022       0.20209374      -1.19838867       0.00000000
Si       0.19652256       2.02289613       1.20315927       0.00000000
Si       0.25800102      -1.95396921       1.38050115       0.00000000
Si       1.93233609      -0.80868447       2.57463776       0.00000000
Si       0.52150806       0.96588315       3.26049801       0.00000000
Si       3.42114435      -0.55486998       0.77978576       0.00000000
Si      -2.84303573      -1.97563491      -1.03729448       0.00000000
Si      -3.42403487       1.32635528       0.41459284       0.00000000
Si      -1.91697788       2.99901248       1.11780700       0.00000000
