10
Lattice="16.28999089631971 0.0 0.0 0.0 16.28999089631971 0.0 0.0 0.0 34.56954931742767" Properties=species:S:1:pos:R:3:initial_magmoms:R:1 pbc="T T T"
Si      -1.77249209      -0.27981333       1.49174603       0.00000000
Si       1.67433507       1.14528474       1.19413661       0.00000000
Si       0.37980135      -2.28011130      -0.59611764       0.00000000
Si      -0.25800102       1.95396921      -1.38050115       0.00000000
Si       0.26350704       2.91985236       1.87999685       0.00000000
Si       3.16314333       1.39909923      -0.60071539       0.00000000
Si       1.71400122       1.74488706      -2.57809472       0.00000000
Si      -3.58897112      -0.44165448      -0.13378423       0.00000000
Si      -1.59691033       1.72193445       2.78409478       0.00000000
Si      -0.90776025      -1.83962970       3.04512959       0.00000000
