10
Lattice="16.28999089631971 0.0 0.0 0.0 16.28999089631971 0.0 0.0 0.0 34.56954931742767" Properties=species:S:1:pos:R:3:initial_magmoms:R:1 pbc="T T T"
Si       1.77249209       0.27981333      -1.49174603       0.00000000
Si       0.86473184      -1.55981637       1.55338357       0.00000000
Si       0.17558177       2.00174778       1.29234875       0.00000000
Si      -1.81647902      -0.16184115      -1.62553026       0.00000000
Si       1.42427705      -3.15750699      -0.12687032       0.00000000
Si      -2.06100821       2.64355749       1.07189861       0.00000000
Si      -2.83914893       1.87844877      -1.03110652       0.00000000
Si       2.15229344      -2.00029797      -2.08786367       0.00000000
Si       3.44682716       1.42509807      -0.29760942       0.00000000
Si       2.03599913       3.19966569       0.38825083       0.00000000
