10
Lattice="10.86 0.0 0.0 0.0 10.86 0.0 0.0 0.0 10.86" Properties=species:S:1:pos:R:3:initial_magmoms:R:1 pbc="T T T"
Si      -1.33548678       1.33548678       1.11941622       0.00000000
Si       1.54221774      -1.54221774       1.12213122       0.00000000
Si       1.37951322       1.33548678      -1.59558378       0.00000000
Si      -1.33548678      -1.37951322      -1.59558378       0.00000000
Si       0.02201322       2.69298678       2.47691622       0.00000000
Si      -2.69298678      -0.02201322       2.47691622       0.00000000
Si      -2.69298678       2.69298678      -0.23808378       0.00000000
Si       2.73701322       2.69298678      -0.23808378       0.00000000
Si      -2.69298678      -2.73701322      -0.23808378       0.00000000
Si       2.79184536      -2.79184536      -0.14162526       0.00000000
