10
Lattice="16.290000149 0.0 0.0 0.0 16.290000149 0.0 0.0 0.0 29.1751946751" Properties=species:S:1:pos:R:3:initial_magmoms:R:1 pbc="T T T"
Si       1.32599298      -1.36031275       1.37406414       0.00000000
Si      -1.37018123      -1.37181349      -1.32213230       0.00000000
Si      -1.36508246       1.35078310       1.35084069       0.00000000
Si       1.36885197       1.36348930      -1.34229236       0.00000000
Si      -2.69656192       0.01058850      -2.68117122       0.00000000
Si       0.00911914      -2.72151331      -2.66244074       0.00000000
Si       2.68110922       0.00294849       2.71743598       0.00000000
Si      -0.02572354       2.70707222       2.71224280       0.00000000
Si       2.72673751       0.00632052      -2.69558376       0.00000000
Si       0.02320999       2.71932230      -2.70427797       0.00000000
