10
Lattice="16.290000149 0.0 0.0 0.0 16.290000149 0.0 0.0 0.0 29.1751946751" Properties=species:S:1:pos:R:3:initial_magmoms:R:1 pbc="T T T"
Si       1.32664132       1.38248344      -1.37570379       0.00000000
Si       1.34851879      -1.36202320       1.37665490       0.00000000
Si      -1.36311463       1.34754139       1.39047227       0.00000000
Si      -1.38955330      -1.37880190      -1.34069356       0.00000000
Si       2.52508034      -0.09047466      -2.80502575       0.00000000
Si      -2.64784178      -2.74766691       0.08419378       0.00000000
Si      -2.84066652       0.03779280      -2.55840783       0.00000000
Si       2.72051147       0.04432509       2.68843000       0.00000000
Si      -0.07188777       2.80699509      -2.59998248       0.00000000
Si       2.63505413       2.82947529      -0.00639229       0.00000000
