10
Lattice="16.290000149 0.0 0.0 0.0 16.290000149 0.0 0.0 0.0 29.1751946751" Properties=species:S:1:pos:R:3:initial_magmoms:R:1 pbc="T T T"
Si      -1.34315805       1.35834166      -1.36855003       0.00000000
Si       1.32666220      -1.34897491      -1.39518698       0.00000000
Si       1.35511594       1.37668420       1.34532658       0.00000000
Si      -1.34628573      -1.37153656       1.36466973       0.00000000
Si       2.66325345      -2.70720254      -0.02888344       0.00000000
Si      -2.68692017       2.72466542      -0.01919728       0.00000000
Si      -2.71845761      -0.01739772       2.69818035       0.00000000
Si      -2.71337513      -2.70953201      -0.00554329       0.00000000
Si       2.71570725       0.03635928       2.71399331       0.00000000
Si      -2.71498784       0.01093059      -2.72312515       0.00000000
