10
Lattice="16.290000149 0.0 0.0 0.0 16.290000149 0.0 0.0 0.0 29.1751946751" Properties=species:S:1:pos:R:3:initial_magmoms:R:1 pbc="T T T"
Si       1.34617303       1.35601219       1.36423210       0.00000000
Si      -1.35378046       1.36575361      -1.35606305       0.00000000
Si      -1.36083403      -1.34412049       1.37076735       0.00000000
Si       1.37704258      -1.34954506      -1.35040306       0.00000000
Si      -0.05162301      -2.75371050      -2.59270911       0.00000000
Si       2.67750587      -2.69825933       0.06826996       0.00000000
Si      -0.02292003       2.71972955       2.70095200       0.00000000
Si      -2.67385691       0.02441871      -2.75008886       0.00000000
Si       2.69188994      -0.00280188       2.73359904       0.00000000
Si       2.69731451       2.73116514       0.01697996       0.00000000
