10
Lattice="16.290000149 0.0 0.0 0.0 16.290000149 0.0 0.0 0.0 29.1751946751" Properties=species:S:1:pos:R:3:initial_magmoms:R:1 pbc="T T T"
Si       1.37994220       1.31743747      -1.36376530       0.00000000
Si      -1.37347507      -1.32657616      -1.36332767       0.00000000
Si       1.35544204      -1.37011933       1.33917061       0.00000000
Si      -1.36886500       1.37929060       1.32233652       0.00000000
Si      -0.05248638       2.63666684      -2.64773644       0.00000000
Si       0.04504185      -2.65706192      -2.66585424       0.00000000
Si       2.72596862      -0.00856854       2.66635022       0.00000000
Si      -2.72811891       0.01720224       2.66783815       0.00000000
Si      -0.01392795       2.73209366       2.68303843       0.00000000
Si      -0.00042354      -2.72489348       2.69794695       0.00000000
