10
Lattice="16.290000149 0.0 0.0 0.0 16.290000149 0.0 0.0 0.0 29.1751946751" Properties=species:S:1:pos:R:3:initial_magmoms:R:1 pbc="T T T"
Si       1.36559071       1.35521398       1.34719379       0.00000000
Si       1.36909306      -1.36371736      -1.33671989       0.00000000
Si      -1.34956135      -1.34708527       1.37762352       0.00000000
Si      -1.34804638       1.35837424      -1.36837498       0.00000000
Si      -0.01198944       2.71836119       2.67790359       0.00000000
Si      -2.69579954      -2.70668126       0.02310675       0.00000000
Si       2.72023454       0.01143558      -2.68397203       0.00000000
Si       2.71645526      -0.02072088       2.69056563       0.00000000
Si       0.02292003      -2.71972955      -2.70095200       0.00000000
Si      -2.71762814       2.71125875      -0.01814697       0.00000000
