10
Lattice="16.290000149 0.0 0.0 0.0 16.290000149 0.0 0.0 0.0 29.1751946751" Properties=species:S:1:pos:R:3:initial_magmoms:R:1 pbc="T T T"
Si      -1.46971314      -1.38885283       1.21494263       0.00000000
Si       1.33823980      -1.33757191      -1.40936613       0.00000000
Si      -1.25657640       1.35071794      -1.47422259       0.00000000
Si       1.41776758       1.38593692       1.29800441       0.00000000
H       -2.97546627       1.50061852       0.38470412       0.00000000
Si      -0.12272886       2.63065583       2.51796518       0.00000000
Si      -0.04424364      -2.61122186       2.58795647       0.00000000
Si       2.76314241       2.67499721      -0.07390077       0.00000000
Si      -2.70521272      -0.00304623      -2.76306599       0.00000000
Si       2.75990070      -2.71044425      -0.15970502       0.00000000
