10
Lattice="16.290000149 0.0 0.0 0.0 16.290000149 0.0 0.0 0.0 29.1751946751" Properties=species:S:1:pos:R:3:initial_magmoms:R:1 pbc="T T T"
Si       1.26477581      -1.37209042      -1.41873137       0.00000000
Si       1.36126311       1.40768407       1.31291294       0.00000000
Si      -1.29164812      -1.35842311       1.44603935       0.00000000
Si      -1.39328143       1.35928648      -1.34780647       0.00000000
Si       2.62236650      -2.69824304      -0.03976579       0.00000000
Si      -0.07094067       2.65013867       2.68548914       0.00000000
Si      -2.72733470      -2.61998588       0.04577588       0.00000000
Si       2.60731454       0.00055386      -2.78293429       0.00000000
Si      -0.03611265       2.70440066      -2.74173892       0.00000000
Si      -0.11968035      -2.72471429      -2.75974001       0.00000000
