10
Lattice="16.290000149 0.0 0.0 0.0 16.290000149 0.0 0.0 0.0 29.1751946751" Properties=species:S:1:pos:R:3:initial_magmoms:R:1 pbc="T T T"
Si       1.38706093       1.35956341      -1.30363522       0.00000000
Si       1.38381922      -1.34649883       1.33345227       0.00000000
Si      -1.31735602       1.37101528       1.38847669       0.00000000
Si      -1.33147945      -1.34615674      -1.41312973       0.00000000
Si       0.01593162       2.72022477      -2.61599383       0.00000000
Si       0.01664838      -2.69255783       2.67484020       0.00000000
Si      -2.67759058      -2.69407280      -0.04443382       0.00000000
Si      -2.66431749       2.73216697       0.03468931       0.00000000
Si       2.71111214       0.00718389      -2.68721048       0.00000000
Si      -2.69243566       0.02267568       2.73832542       0.00000000
