10
Lattice="16.290000149 0.0 0.0 0.0 16.290000149 0.0 0.0 0.0 29.1751946751" Properties=species:S:1:pos:R:3:initial_magmoms:R:1 pbc="T T T"
Si       0.88814710      -1.42268716       1.59004811       0.00000000
Si      -2.23378256       0.50569047      -0.31935168       0.00000000
Si       0.56164663      -1.03469194      -2.00906226       0.00000000
Si       1.24274782       1.78878211      -0.83610273       0.00000000
H       -0.03157002      -1.49361382       2.79863055       0.00000000
Si       0.59855977       1.11515965      -2.98150067       0.00000000
Si       2.77092903      -0.07952778       1.98761849       0.00000000
Si       3.29766618       1.17856359       0.06007173       0.00000000
Si      -1.06240123      -2.72148887      -2.07132212       0.00000000
Si       1.15693210       1.45031826       3.06575863       0.00000000
