10
Lattice="16.290000149 0.0 0.0 0.0 16.290000149 0.0 0.0 0.0 29.1751946751" Properties=species:S:1:pos:R:3:initial_magmoms:R:1 pbc="T T T"
Si      -1.35769169      -1.35252613       1.35524614       0.00000000
Si      -1.39321041       1.35073423      -1.32399951       0.00000000
Si       1.31587363      -1.36449928      -1.38748473       0.00000000
Si       1.39745395       1.35826021       1.32694620       0.00000000
Si      -0.01813077       2.69907383      -2.67384824       0.00000000
Si       2.67845069      -2.71972955      -0.05269040       0.00000000
Si      -2.68809193       0.02686221       2.72096618       0.00000000
Si       2.68304447      -0.01844028      -2.72887266       0.00000000
Si       0.07043796       2.74600435       2.66483311       0.00000000
Si       0.00289962      -2.69285105       2.72391288       0.00000000
