10
Lattice="16.290000149 0.0 0.0 0.0 16.290000149 0.0 0.0 0.0 29.1751946751" Properties=species:S:1:pos:R:3:initial_magmoms:R:1 pbc="T T T"
Si       1.32282946       1.27130419      -1.46523663       0.00000000
Si       1.28436877      -1.62435736       1.13033457       0.00000000
Si      -0.97775839       1.81061723       1.21397985       0.00000000
Si      -1.27700569      -1.66131938      -1.20268905       0.00000000
H        0.25651863      -2.73403218       1.34798152       0.00000000
H       -3.03424059      -0.99103474       0.29706183       0.00000000
H       -0.26049339      -1.17421579       3.14683650       0.00000000
H       -2.48098331      -1.19075014      -1.99718795       0.00000000
H       -1.87222601       0.43992774      -3.18350972       0.00000000
Si      -2.48925863       2.82937755      -0.29825802       0.00000000
