10
Lattice="16.290000149 0.0 0.0 0.0 16.290000149 0.0 0.0 0.0 29.1751946751" Properties=species:S:1:pos:R:3:initial_magmoms:R:1 pbc="T T T"
Si       1.23112947      -1.28621606      -1.58692636       0.00000000
Si      -1.28148903       1.33983622      -1.50923282       0.00000000
Si      -1.42073595      -1.41478977       1.36405705       0.00000000
Si       1.32671267       1.68941963       1.13074302       0.00000000
H        2.82984637       0.21229128       0.50260108       0.00000000
H        0.18713431       2.65180025       1.42310765       0.00000000
H       -0.96650558       0.84664018       3.35864841       0.00000000
Si      -2.60992225      -2.52026991      -0.34715564       0.00000000
Si       3.44218748      -1.09397125       0.94285477       0.00000000
Si      -2.77344127       2.60208317      -0.22432807       0.00000000
