10
Lattice="16.290000149 0.0 0.0 0.0 16.290000149 0.0 0.0 0.0 29.1751946751" Properties=species:S:1:pos:R:3:initial_magmoms:R:1 pbc="T T T"
Si      -1.18918630      -1.10548014      -1.71121269       0.00000000
Si       0.56363401      -1.76234670       1.49826295       0.00000000
Si      -2.00906201       0.87547674       0.95799669       0.00000000
Si       1.42073595       1.41478977      -1.36405705       0.00000000
H        0.45423036       2.26142995       1.99459136       0.00000000
Si      -2.48404583      -2.58261337      -0.45151531       0.00000000
Si      -2.74867689       2.19817588      -0.83394376       0.00000000
Si      -3.52305462      -0.97844094       0.88403757       0.00000000
Si      -2.65272878       0.48345788      -2.64861170       0.00000000
H       -0.76580920       0.09185768       3.72071258       0.00000000
