10
Lattice="16.290000149 0.0 0.0 0.0 16.290000149 0.0 0.0 0.0 29.1751946751" Properties=species:S:1:pos:R:3:initial_magmoms:R:1 pbc="T T T"
Si      -1.35785296       1.35488818       1.35489604       0.00000000
Si      -1.35861859      -1.34444629      -1.36522406       0.00000000
Si       1.32408379      -1.36743148       1.38967287       0.00000000
Si       1.35539317       1.37398006      -1.35973912       0.00000000
Si       2.69842223       0.02173086       2.69342480       0.00000000
Si       2.69464295      -2.70529661       0.02094779       0.00000000
Si      -2.71480997       2.70019784      -0.01779687       0.00000000
Si       0.00996948       2.72337851       2.69275377       0.00000000
Si      -2.72520299      -2.69391479      -0.01986831       0.00000000
Si       0.00265527      -2.70810012      -2.71224280       0.00000000
