10
Lattice="16.290000149 0.0 0.0 0.0 16.290000149 0.0 0.0 0.0 29.1751946751" Properties=species:S:1:pos:R:3:initial_magmoms:R:1 pbc="T T T"
Si       1.44378271      -0.28359261      -0.43835730       0.00000000
Si      -1.98684245       0.09695808       1.06069338       0.00000000
Si      -1.21946941       1.96341743      -0.21683005       0.00000000
Si       0.65959840       2.67136454       1.05550019       0.00000000
Si       1.09328707      -0.05172075      -2.80105209       0.00000000
Si      -0.59194603       1.61732008      -2.54188884       0.00000000
Si      -0.95964391      -1.23611779       2.67769937       0.00000000
Si       1.89385913      -2.41445495       0.45425778       0.00000000
Si       2.66906765       1.30333033       0.97599779       0.00000000
H        1.63260010       2.39332682      -1.40650696       0.00000000
