10
Lattice="16.290000149 0.0 0.0 0.0 16.290000149 0.0 0.0 0.0 29.1751946751" Properties=species:S:1:pos:R:3:initial_magmoms:R:1 pbc="T T T"
Si       1.42094413       1.31186629       1.31139583       0.00000000
Si       1.37850868      -1.34643367      -1.32216147       0.00000000
Si      -1.34662915      -1.35716878       1.35696748       0.00000000
Si      -1.36138789       1.39422853      -1.30547326       0.00000000
Si       0.04968450       2.67372659       2.57333970       0.00000000
Si       0.00798210      -2.70798446      -2.64934108       0.00000000
Si       2.73059499       0.04393413      -2.65047891       0.00000000
Si      -2.71632494       0.04142547      -2.66617517       0.00000000
Si       0.01329264       2.73685034      -2.64846582       0.00000000
Si       2.73220770      -2.67652847       0.06710295       0.00000000
