10
Lattice="16.290000149 0.0 0.0 0.0 16.290000149 0.0 0.0 0.0 29.1751946751" Properties=species:S:1:pos:R:3:initial_magmoms:R:1 pbc="T T T"
Si      -1.17181139       0.14315652      -2.01189225       0.00000000
Si       0.21998668       1.85937320       1.42888433       0.00000000
Si       2.30797700      -0.16979067      -0.60710663       0.00000000
Si      -1.16319398      -2.05651478       0.58825945       0.00000000
H       -2.71667355       0.59329810       0.00460968       0.00000000
H       -2.19966153      -0.96651829      -1.79424530       0.00000000
Si      -3.17266324      -0.68848057       0.66776186       0.00000000
Si       1.65883678       0.67569292       2.87349410       0.00000000
Si       1.88181430      -1.98249302      -2.09247414       0.00000000
Si       0.31903965      -0.90546337      -3.45831088       0.00000000
