10
Lattice="16.290000149 0.0 0.0 0.0 16.290000149 0.0 0.0 0.0 29.1751946751" Properties=species:S:1:pos:R:3:initial_magmoms:R:1 pbc="T T T"
H       -0.88844032       0.84268171      -0.89319859       0.00000000
Si       1.03408921      -1.48605526      -1.47063404       0.00000000
Si      -1.39132891      -1.22971582       1.43180185       0.00000000
Si       1.89670988       1.30145698       0.63342265       0.00000000
Si       1.94815370       0.35228754      -2.64061769       0.00000000
Si       0.01571985       1.84151936      -2.95270475       0.00000000
H       -2.78677920       0.42743331      -2.14169269       0.00000000
Si       2.14848812       0.78980437       2.93256628       0.00000000
Si       0.00720018      -2.65422746       2.65608055       0.00000000
Si       2.53614125      -2.79529887      -0.17201695       0.00000000
