10
Lattice="16.290000149 0.0 0.0 0.0 16.290000149 0.0 0.0 0.0 29.1751946751" Properties=species:S:1:pos:R:3:initial_magmoms:R:1 pbc="T T T"
H        0.90372034      -0.89818174       0.81191649       0.00000000
Si       1.33926607       1.30702816      -1.39536204       0.00000000
Si      -1.14324850       1.42612435       1.46471147       0.00000000
Si      -1.31369077      -1.46790820      -1.27200931       0.00000000
H       -1.11637000      -1.25563321       2.22562973       0.00000000
Si      -2.57479417       2.63801891       0.08066941       0.00000000
Si      -0.50402889      -2.56189574       2.66588341       0.00000000
Si      -2.67128147      -0.14175558      -2.65097489       0.00000000
Si      -0.01725111       2.66532095      -2.69686747       0.00000000
Si       2.71878473       2.65263104      -0.09388578       0.00000000
