10
Lattice="16.290000149 0.0 0.0 0.0 16.290000149 0.0 0.0 0.0 29.1751946751" Properties=species:S:1:pos:R:3:initial_magmoms:R:1 pbc="T T T"
Si       1.36695907       1.35037585      -1.35026885       0.00000000
Si      -1.34408791      -1.36901161      -1.36291047       0.00000000
Si       1.35112519      -1.31789359       1.40892850       0.00000000
Si      -1.36278883       1.37368684       1.34868172       0.00000000
Si       2.67211388       2.64534941       0.12451973       0.00000000
Si      -2.69996978      -2.68330511       0.03588549       0.00000000
Si       0.08223192      -2.74483245      -2.65654735       0.00000000
Si      -0.00436572       2.76242565      -2.65395659       0.00000000
Si       2.76964212      -2.64837935       0.10640194       0.00000000
Si      -2.71759556      -0.01747917      -2.72349567       0.00000000
