10
Lattice="16.290000149 0.0 0.0 0.0 16.290000149 0.0 0.0 0.0 29.1751946751" Properties=species:S:1:pos:R:3:initial_magmoms:R:1 pbc="T T T"
Si       1.38228796      -1.35663121      -1.32373110       0.00000000
Si       1.33744159       1.32494716       1.40418461       0.00000000
Si      -1.35301483      -1.39773088       1.32030593       0.00000000
Si      -1.32941062       1.39561318      -1.36870466       0.00000000
Si      -0.03059262      -2.65298942      -2.66701424       0.00000000
Si      -2.65901672       2.71008587       0.05070357       0.00000000
Si       2.70404228       0.04652424      -2.66597765       0.00000000
Si      -2.70515000      -0.02839347       2.67826537       0.00000000
Si      -2.75634948       0.03622896      -2.64791441       0.00000000
Si       2.68716584       2.72039681       0.09432049       0.00000000
