10
Lattice="16.290000149 0.0 0.0 0.0 16.290000149 0.0 0.0 0.0 29.1751946751" Properties=species:S:1:pos:R:3:initial_magmoms:R:1 pbc="T T T"
Si       1.33935893       1.35628912       1.36140211       0.00000000
Si      -1.33968961       1.37314927      -1.35022801       0.00000000
Si       1.36508246      -1.35078310      -1.35084069       0.00000000
Si      -1.35374788      -1.34596126       1.37228446       0.00000000
Si      -2.69677694       0.00628794      -2.68087946       0.00000000
Si       2.66207924      -0.01008351       2.72697627       0.00000000
Si      -0.00509877      -2.72259659      -2.67297299       0.00000000
Si       2.69107544      -2.71109585       0.02322346       0.00000000
Si      -2.68688891       2.71873586       0.01873047       0.00000000
Si       2.68973966       2.72106533      -0.00460968       0.00000000
