10
Lattice="16.290000149 0.0 0.0 0.0 16.290000149 0.0 0.0 0.0 29.1751946751" Properties=species:S:1:pos:R:3:initial_magmoms:R:1 pbc="T T T"
Si       1.32272032      -1.36637263       1.36557416       0.00000000
Si      -1.33935893      -1.35628912      -1.36140211       0.00000000
Si      -1.32070688       1.33747417       1.40676954       0.00000000
Si       1.35038074       1.36477621      -1.36601179       0.00000000
Si       2.63421194       0.06805962       2.68388451       0.00000000
Si      -2.65915845       2.70044219       0.02754138       0.00000000
Si      -2.67904854       0.01686015      -2.71163012       0.00000000
Si      -2.69310681      -2.70225038       0.01088235       0.00000000
Si       2.70683276      -2.70412373       0.00519318       0.00000000
Si       0.02572354      -2.70707222      -2.71224280       0.00000000
