10
Lattice="16.290000149 0.0 0.0 0.0 16.290000149 0.0 0.0 0.0 29.1751946751" Properties=species:S:1:pos:R:3:initial_magmoms:R:1 pbc="T T T"
Si      -1.28565894      -1.41201721      -1.31518860       0.00000000
Si       1.42546950      -1.22236903       1.37301384       0.00000000
Si      -1.33478958       1.22709313       1.49741687       0.00000000
Si       1.46971314       1.38885283      -1.21494263       0.00000000
H       -1.50575313       2.88947136      -0.83023851       0.00000000
Si       2.09117664       0.65098099       2.67513195       0.00000000
Si       0.43063919       2.29736243       2.59379151       0.00000000
Si      -2.57362780      -0.03152115      -2.67556958       0.00000000
Si      -2.70277492       2.62637156       0.20600605       0.00000000
Si      -2.59819312      -2.74484874       0.12758313       0.00000000
