10
Lattice="16.290000149 0.0 0.0 0.0 16.290000149 0.0 0.0 0.0 29.1751946751" Properties=species:S:1:pos:R:3:initial_magmoms:R:1 pbc="T T T"
Si       1.33398811       1.36362777      -1.36939611       0.00000000
Si      -1.34392501      -1.33824795      -1.39862966       0.00000000
Si      -1.42315957       1.36543596       1.29955070       0.00000000
Si       1.39667203      -1.34427525       1.36078943       0.00000000
Si       2.69980688      -2.69105101      -0.07223778       0.00000000
Si      -2.69451263      -2.69963584      -0.06228904       0.00000000
Si       0.05084109      -2.72154589       2.67443175       0.00000000
Si       2.69439860       2.70927952      -0.00242154       0.00000000
Si       2.62405838       0.09137061       2.78710635       0.00000000
Si      -0.13041774       2.80206736       2.61088817       0.00000000
