10
Lattice="16.290000149 0.0 0.0 0.0 16.290000149 0.0 0.0 0.0 29.1751946751" Properties=species:S:1:pos:R:3:initial_magmoms:R:1 pbc="T T T"
Si       1.31369077       1.46790820       1.27200931       0.00000000
Si      -1.35759069       1.32615262      -1.37896558       0.00000000
Si      -1.40139613      -1.28623235       1.40811160       0.00000000
Si       1.42591258      -1.34677413      -1.34211731       0.00000000
H        2.21741111       0.56972647       2.08392581       0.00000000
H        0.19732077       0.21227499       3.49763904       0.00000000
Si      -2.46992566      -2.48960887      -0.25752944       0.00000000
Si      -0.04344543      -2.76307725       2.54620676       0.00000000
Si      -2.62236650       2.69824304       0.03976579       0.00000000
Si       2.65295684       2.77493637      -0.12335272       0.00000000
