10
Lattice="16.290000149 0.0 0.0 0.0 16.290000149 0.0 0.0 0.0 29.1751946751" Properties=species:S:1:pos:R:3:initial_magmoms:R:1 pbc="T T T"
Si      -1.67237540      -0.78118696       1.44361781       0.00000000
Si      -0.52336024       0.67033351      -2.22913075       0.00000000
Si       1.10677030       1.71036857       1.24519731       0.00000000
Si       1.41436786      -1.94759984      -0.00676865       0.00000000
H       -2.85550182      -1.31587363       0.39106431       0.00000000
Si       2.46287372       0.30255417       2.55805189       0.00000000
Si       0.89970485      -2.85733119      -2.09991381       0.00000000
Si       3.47052426      -0.93744064       0.71493815       0.00000000
Si      -0.53231974      -2.28245708       2.82556742       0.00000000
H        2.86702862      -0.37688544      -2.38822309       0.00000000
