10
Lattice="16.290000149 0.0 0.0 0.0 16.290000149 0.0 0.0 0.0 29.1751946751" Properties=species:S:1:pos:R:3:initial_magmoms:R:1 pbc="T T T"
Si       1.34079733      -1.35575155      -1.34452047       0.00000000
Si       1.30378645       1.18478800       1.55265222       0.00000000
Si      -1.32175432      -1.40315545       1.34224655       0.00000000
Si      -1.21578787       1.41452587      -1.44899684       0.00000000
Si      -0.16329096      -2.64147239      -2.62901676       0.00000000
Si       0.40122270       2.90097861      -2.38916749       0.00000000
Si      -2.70404228      -0.04652424       2.66597765       0.00000000
Si      -2.69804756       2.71386157      -0.11070148       0.00000000
Si      -2.73463491      -2.69951366      -0.00103659       0.00000000
Si      -0.01687644       2.67387257       2.76029814       0.00000000
