10
Lattice="16.290000149 0.0 0.0 0.0 16.290000149 0.0 0.0 0.0 29.1751946751" Properties=species:S:1:pos:R:3:initial_magmoms:R:1 pbc="T T T"
Si       1.31497768      -1.26355015       1.47247208       0.00000000
Si      -0.85748932      -1.93683215      -1.03967265       0.00000000
Si      -1.43128828       1.37182978       1.28443211       0.00000000
Si       1.21705849       1.43439967      -1.44219406       0.00000000
Si       2.57261456      -2.66535353       0.10844712       0.00000000
Si       2.61239474       2.75592594      -0.07724716       0.00000000
Si      -0.05929560       2.77817808       2.59620721       0.00000000
Si       2.75432952       0.16107552      -2.63831869       0.00000000
Si      -0.09627390      -2.66752010       2.73006301       0.00000000
Si      -1.51293376      -1.51381342      -3.17027001       0.00000000
