10
Lattice="16.290000149 0.0 0.0 0.0 16.290000149 0.0 0.0 0.0 29.1751946751" Properties=species:S:1:pos:R:3:initial_magmoms:R:1 pbc="T T T"
Si      -1.37112931       1.36066136      -1.31235861       0.00000000
Si      -1.38706093      -1.35956341       1.30363522       0.00000000
Si       1.32405121      -1.35237952      -1.38357526       0.00000000
Si       1.35493705       1.37240645       1.33785773       0.00000000
Si      -0.00324171      -2.70606224       2.63708750       0.00000000
Si      -0.02454903       2.69084738      -2.65829495       0.00000000
Si       2.67377546       0.04307013      -2.69343938       0.00000000
Si      -2.70441695       0.01145187       2.69211191       0.00000000
Si       2.74414827       0.01361844       2.65310468       0.00000000
Si      -0.00433314       2.73083934       2.67749514       0.00000000
