10
Lattice="16.290000149 0.0 0.0 0.0 16.290000149 0.0 0.0 0.0 29.1751946751" Properties=species:S:1:pos:R:3:initial_magmoms:R:1 pbc="T T T"
Si       1.46621079      -1.21396339      -1.33406495       0.00000000
Si      -1.15158898      -1.63887175       1.18177044       0.00000000
Si      -1.76995739       1.15512391      -1.03198499       0.00000000
Si       1.45934129       1.38494323       1.34894430       0.00000000
H       -2.05180697      -0.89599888       2.15975214       0.00000000
Si      -3.38397060       1.32957352       0.64579293       0.00000000
Si       2.64872144       0.31117158      -2.64919520       0.00000000
Si       2.90506089      -2.39764367       0.11054481       0.00000000
Si      -0.93390571       3.08484222      -2.04824454       0.00000000
Si       0.25168327      -2.80849377       2.64242656       0.00000000
