10
Lattice="16.290000149 0.0 0.0 0.0 16.290000149 0.0 0.0 0.0 29.1751946751" Properties=species:S:1:pos:R:3:initial_magmoms:R:1 pbc="T T T"
Si       1.35927019      -1.35843289      -1.33963741       0.00000000
Si      -1.34504902      -1.35459496       1.36423210       0.00000000
Si       1.37230219       1.34599384       1.34570585       0.00000000
Si      -1.32942691       1.36959805      -1.37231363       0.00000000
Si       0.06608853      -2.69881319       2.67907060       0.00000000
Si       0.00105885       2.70238070       2.67889555       0.00000000
Si       2.70891299       0.01545921      -2.67481102       0.00000000
Si       0.00433314      -2.73083934      -2.67749514       0.00000000
Si      -2.68731245       2.72676683      -0.01902223       0.00000000
Si      -2.70008381      -2.71938746       0.01461677       0.00000000
