10
Lattice="16.290000149 0.0 0.0 0.0 16.290000149 0.0 0.0 0.0 29.1751946751" Properties=species:S:1:pos:R:3:initial_magmoms:R:1 pbc="T T T"
Si      -1.37184607      -1.35917245       1.32825909       0.00000000
Si      -1.38921121       1.35878801      -1.31524695       0.00000000
Si       1.34289874       1.36967462       1.35749263       0.00000000
Si       1.34899120      -1.37924173      -1.34427627       0.00000000
Si      -0.03956841       2.73268011      -2.65042056       0.00000000
Si      -2.68239287       0.01840770       2.70346106       0.00000000
Si      -0.01466100      -2.70058880       2.69392078       0.00000000
Si      -2.74414827      -0.01361844      -2.65310468       0.00000000
Si       2.72689715      -0.03311757      -2.67673659       0.00000000
Si       2.71458191       0.02125845       2.69342480       0.00000000
