10
Lattice="16.290000149 0.0 0.0 0.0 16.290000149 0.0 0.0 0.0 29.1751946751" Properties=species:S:1:pos:R:3:initial_magmoms:R:1 pbc="T T T"
Si       1.38500839      -1.31426092      -1.35871799       0.00000000
Si       1.37052658       1.36155079       1.32717961       0.00000000
Si      -1.35544204       1.37011933      -1.33917061       0.00000000
Si      -1.35586558      -1.35477415       1.35877634       0.00000000
Si       0.00658116      -2.67817376      -2.66346187       0.00000000
Si      -0.00798210       2.70798446       2.64934108       0.00000000
Si       0.02450016       2.68755680      -2.70293591       0.00000000
Si       2.71433756      -2.68099193       0.01683409       0.00000000
Si      -2.73269640       0.01138671       2.67203938       0.00000000
Si      -2.73434169      -2.69042384       0.01412079       0.00000000
