10
Lattice="16.290000149 0.0 0.0 0.0 16.290000149 0.0 0.0 0.0 29.1751946751" Properties=species:S:1:pos:R:3:initial_magmoms:R:1 pbc="T T T"
Si       1.32372541       1.33635309       1.33827785       0.00000000
Si      -1.41815854       1.34298638      -1.25280912       0.00000000
Si       1.23015565      -1.20171038      -1.59670297       0.00000000
Si      -1.45963288      -1.43657960       1.21469173       0.00000000
Si      -2.45708588      -0.51077002      -2.20536755       0.00000000
Si      -0.71231284      -2.05356336      -2.65908151       0.00000000
Si       2.62297054       2.62635821      -0.13371283       0.00000000
Si       2.64088400      -0.09864931       2.61378819       0.00000000
Si       2.53096103      -2.73085269      -0.27746194       0.00000000
Si      -0.11881926       2.66885882       2.62052766       0.00000000
