10
Lattice="16.290000149 0.0 0.0 0.0 16.290000149 0.0 0.0 0.0 29.1751946751" Properties=species:S:1:pos:R:3:initial_magmoms:R:1 pbc="T T T"
Si       1.53486010       0.71770483       1.61125848       0.00000000
Si      -1.21942054      -1.32351364       1.49318646       0.00000000
Si       0.62698582      -1.06986205      -2.04468517       0.00000000
Si      -1.49001373       1.86403214      -0.35336996       0.00000000
H        1.87023863      -1.85348110       0.71803072       0.00000000
H        3.09027819       0.31609116      -1.00809050       0.00000000
Si      -1.87150925       1.22095180      -2.57724917       0.00000000
Si       0.30553524       2.56919366       2.27624869       0.00000000
Si       3.15903828       1.39085650       0.05280710       0.00000000
Si      -2.55233351       0.22266801       2.65062479       0.00000000
