10
Lattice="16.290000149 0.0 0.0 0.0 16.290000149 0.0 0.0 0.0 29.1751946751" Properties=species:S:1:pos:R:3:initial_magmoms:R:1 pbc="T T T"
Si      -1.40327225       1.16962201      -1.46065612       0.00000000
Si      -1.45960307      -1.17802765       1.41670369       0.00000000
Si       1.46147740      -1.28132254      -1.34278833       0.00000000
Si       1.21976801       1.49046985       1.39776899       0.00000000
H       -2.30349024       1.91249489      -0.48267442       0.00000000
Si       2.65337761       0.41085009      -2.53188174       0.00000000
Si      -0.07135297      -2.53822637       2.77262378       0.00000000
Si      -2.85493933      -2.49955391       0.05175680       0.00000000
Si       2.60587597       0.15107346       2.76930073       0.00000000
Si      -0.25168327       2.80849377      -2.64242656       0.00000000
