10
Lattice="16.290000149 0.0 0.0 0.0 16.290000149 0.0 0.0 0.0 29.1751946751" Properties=species:S:1:pos:R:3:initial_magmoms:R:1 pbc="T T T"
H        1.19661454       0.36610146       0.88981426       0.00000000
Si       0.85123396       1.48734217      -1.63182699       0.00000000
Si      -0.77070923      -2.11434428       1.17812354       0.00000000
Si       0.54200089      -2.38376459      -0.73454388       0.00000000
Si      -2.19377432       1.41332041       1.04890660       0.00000000
H        2.59928129      -1.66366514       1.34652276       0.00000000
Si      -3.41905926      -0.17360253      -0.36544849       0.00000000
H       -1.88410305      -1.57407013      -2.46927178       0.00000000
Si      -0.25604622      -1.20461293       3.27126870       0.00000000
Si       1.27739665       3.30004452      -0.14645948       0.00000000
