10
Lattice="16.290000149 0.0 0.0 0.0 16.290000149 0.0 0.0 0.0 29.1751946751" Properties=species:S:1:pos:R:3:initial_magmoms:R:1 pbc="T T T"
Si      -1.34472322       1.34490241      -1.36665364       0.00000000
Si      -1.35531172      -1.37103157       1.34611431       0.00000000
Si       1.35747829       1.34830702       1.36720797       0.00000000
Si       1.34342002      -1.30302082      -1.42409960       0.00000000
Si      -2.76767103      -0.11497482      -2.59047137       0.00000000
Si       0.11490966       2.78148201      -2.58134537       0.00000000
Si      -2.69762402       2.67545333       0.03343477       0.00000000
Si       2.69187365      -2.68789889      -0.06269749       0.00000000
Si       0.00724905      -2.71094924       2.70982126       0.00000000
Si      -2.71005329      -0.01803303       2.71183434       0.00000000
