10
Lattice="16.290000149 0.0 0.0 0.0 16.290000149 0.0 0.0 0.0 29.1751946751" Properties=species:S:1:pos:R:3:initial_magmoms:R:1 pbc="T T T"
Si       1.31711167      -1.44102970       1.27740672       0.00000000
Si      -1.34969167      -1.35975889      -1.34871090       0.00000000
Si       1.38763108       1.36062226      -1.31495520       0.00000000
Si      -1.29010285       1.36801792       1.41129169       0.00000000
Si       2.73887030      -0.04645908       2.45766005       0.00000000
Si      -2.63068841       2.71823087       0.03092571       0.00000000
Si       0.03044601       2.70203861      -2.68061689       0.00000000
Si      -0.07319097      -2.77552281       2.61418497       0.00000000
Si      -2.71226873      -0.00452862      -2.68350523       0.00000000
Si       0.02788848      -2.72290610      -2.67942070       0.00000000
