10
Lattice="16.290000149 0.0 0.0 0.0 16.290000149 0.0 0.0 0.0 29.1751946751" Properties=species:S:1:pos:R:3:initial_magmoms:R:1 pbc="T T T"
Si      -1.36667726      -1.37645451      -1.32933857       0.00000000
Si       1.34819788       1.35267437      -1.37432672       0.00000000
Si       1.46685424      -1.32274736       1.28163713       0.00000000
Si      -1.40779322       1.32841856       1.35262038       0.00000000
Si       0.15696067      -2.68812533       2.62661360       0.00000000
Si      -0.02333705       2.68104243       2.69362902       0.00000000
Si      -2.70040473      -0.00921851      -2.69774273       0.00000000
Si      -2.69662545       2.71780896      -0.02526572       0.00000000
Si       2.70331412       2.71593561      -0.03095488       0.00000000
Si       0.00320587      -2.71801748      -2.70719549       0.00000000
