10
Lattice="16.290000149 0.0 0.0 0.0 16.290000149 0.0 0.0 0.0 29.1751946751" Properties=species:S:1:pos:R:3:initial_magmoms:R:1 pbc="T T T"
Si       0.11546352      -2.30156362      -0.23961587       0.00000000
Si      -1.74461015      -0.32531456       1.49236956       0.00000000
Si      -0.98100010       0.85696152      -1.98863962       0.00000000
Si       1.82482211       1.19998820       1.00129268       0.00000000
H       -0.41563935       2.65997946       1.49680419       0.00000000
Si      -2.50134581       2.17382070      -0.79102705       0.00000000
Si       1.70800652      -2.24269156      -2.03205231       0.00000000
Si      -1.06062562       3.50305213       0.41904332       0.00000000
Si       0.41655159      -3.18381374       1.99788816       0.00000000
Si      -3.66319749       0.73346866       0.71385866       0.00000000
