10
Lattice="10.86 0.0 0.0 0.0 10.86 0.0 0.0 0.0 10.86" Properties=species:S:1:pos:R:3:initial_magmoms:R:1 pbc="T T T"
Si       1.53289986       1.13363196       1.43337882       0.00000000
Si      -1.18210014      -1.58136804       1.43337882       0.00000000
Si      -1.69454010      -0.69381282      -1.70692050       0.00000000
Si       1.53289986      -1.58136804      -1.28162118       0.00000000
Si      -2.27166222       2.20332024       0.07969068       0.00000000
Si       0.17539986       2.49113196       2.79087882       0.00000000
Si      -2.53960014      -0.22386804       2.79087882       0.00000000
Si       3.05545014       2.26857798       0.27199956       0.00000000
Si      -2.53960014      -2.93886804       0.07587882       0.00000000
Si       2.77718436       0.17463966      -2.72071236       0.00000000
