10
Lattice="10.86 0.0 0.0 0.0 10.86 0.0 0.0 0.0 10.86" Properties=species:S:1:pos:R:3:initial_magmoms:R:1 pbc="T T T"
Si      -1.15252836       1.31972892      -1.39976712       0.00000000
Si      -0.35570844      -1.87761798       1.34632506       0.00000000
Si       1.56247164       1.31972892       1.31523288       0.00000000
Si       1.56247164      -1.39527108      -1.39976712       0.00000000
Si      -2.50900752      -2.33723490       0.36053028       0.00000000
Si      -2.34852930      -0.33899490       2.58218220       0.00000000
Si      -2.51002836       2.67722892      -0.04226712       0.00000000
Si      -2.51002836      -0.03777108      -2.75726712       0.00000000
Si       0.20497164       2.67722892       2.67273288       0.00000000
Si       0.20497164       2.67722892      -2.75726712       0.00000000
