10
Lattice="10.86 0.0 0.0 0.0 10.86 0.0 0.0 0.0 10.86" Properties=species:S:1:pos:R:3:initial_magmoms:R:1 pbc="T T T"
Si      -1.62543792      -1.06968828       1.35368814       0.00000000
Si       1.08956208       1.64531172       1.35368814       0.00000000
Si      -1.62543792       1.64531172      -1.36131186       0.00000000
Si       2.27166222      -2.20332024      -0.07969068       0.00000000
Si       0.57712212      -2.89713306      -1.78661118       0.00000000
Si      -0.26793792      -2.42718828       2.71118814       0.00000000
Si       2.44706208       0.28781172       2.71118814       0.00000000
Si      -2.98293792      -2.42718828      -0.00381186       0.00000000
Si      -0.10643886       2.70158790      -2.80936254       0.00000000
Si       2.58996882       2.94805560       0.00830790       0.00000000
