10
Lattice="10.86 0.0 0.0 0.0 10.86 0.0 0.0 0.0 10.86" Properties=species:S:1:pos:R:3:initial_magmoms:R:1 pbc="T T T"
Si       1.45527258      -1.52433132      -1.01694126       0.00000000
Si      -1.28143656       1.46442756      -1.44307680       0.00000000
Si       1.45527258       1.19066868       1.69805874       0.00000000
Si      -1.25972742      -1.52433132       1.69805874       0.00000000
Si      -2.57903280      -0.03988878      -2.44366290       0.00000000
Si      -2.73895716       2.32854690       0.22722378       0.00000000
Si       0.09777258      -2.88183132      -2.37444126       0.00000000
Si       2.94300570       2.27729856       0.52637334       0.00000000
Si      -2.61722742      -2.88183132       0.34055874       0.00000000
Si       2.94278850       0.08084184      -2.57704542       0.00000000
