10
Lattice="10.86 0.0 0.0 0.0 10.86 0.0 0.0 0.0 10.86" Properties=species:S:1:pos:R:3:initial_magmoms:R:1 pbc="T T T"
Si       1.08122160       1.33075182      -1.55608596       0.00000000
Si      -1.75756068       1.44370668       1.13299122       0.00000000
Si      -1.78691526      -1.18139424      -1.55564070       0.00000000
Si      -0.34635798      -2.35985628       2.09717460       0.00000000
Si       2.39035116       2.79638484      -0.19168986       0.00000000
Si       2.39035116       0.08138484      -2.90668986       0.00000000
Si      -0.32464884       2.79638484       2.52331014       0.00000000
Si      -0.32464884      -2.63361516      -2.90668986       0.00000000
Si      -3.03964884       0.08138484       2.52331014       0.00000000
Si      -3.03964884      -2.63361516      -0.19168986       0.00000000
