10
Lattice="10.86 0.0 0.0 0.0 10.86 0.0 0.0 0.0 10.86" Properties=species:S:1:pos:R:3:initial_magmoms:R:1 pbc="T T T"
Si       1.02611796      -1.24559856      -1.39574892       0.00000000
Si       1.02611796       1.46940144       1.31925108       0.00000000
Si      -1.68888204       1.46940144      -1.39574892       0.00000000
Si      -0.20136612      -2.35542540       2.47414692       0.00000000
Si       2.38361796      -2.60309856      -0.03824892       0.00000000
Si       2.38361796       0.11190144       2.67675108       0.00000000
Si       2.38361796       0.11190144      -2.75324892       0.00000000
Si       2.38361796       2.82690144      -0.03824892       0.00000000
Si      -0.33138204      -2.60309856      -2.75324892       0.00000000
Si       0.01131612       3.05666646       2.40868284       0.00000000
