10
Lattice="16.28999089631971 0.0 0.0 0.0 16.28999089631971 0.0 0.0 0.0 34.69518985606464" Properties=species:S:1:pos:R:3:initial_magmoms:R:1 pbc="T T T"
Si       1.02105948       1.09128339       1.85553449       0.00000000
Si      -0.43977463      -2.30755180       0.69615937       0.00000000
Si       1.41408994      -0.07284888      -2.03858641       0.00000000
Si      -2.27002129       1.11500163       0.11886579       0.00000000
Si      -1.84635097      -2.14190857      -2.07935328       0.00000000
Si      -0.24170452      -1.06158672      -3.47247002       0.00000000
Si       1.76713659       3.18704076       0.68956728       0.00000000
Si      -3.66685621      -0.77608818      -0.32492063       0.00000000
Si      -2.66956612      -2.27239147       1.42024839       0.00000000
Si      -2.07815767       2.81909853      -1.59035900       0.00000000
