10
Lattice="16.28999089631971 0.0 0.0 0.0 16.28999089631971 0.0 0.0 0.0 34.69518985606464" Properties=species:S:1:pos:R:3:initial_magmoms:R:1 pbc="T T T"
Si      -0.72513469       2.27951429       0.03143386       0.00000000
Si       0.88281700      -0.46066491       2.19044734       0.00000000
Si       1.39143967      -0.17168031      -1.99049885       0.00000000
Si      -1.28807245      -2.05829037      -0.23506004       0.00000000
Si       0.65399137      -3.41790264      -0.23922347       0.00000000
Si       1.55240116      -2.71933857       1.84446671       0.00000000
Si       1.39974757       3.35345030       0.19616671       0.00000000
Si       2.13208081      -2.48389920      -2.07362857       0.00000000
Si      -0.55477713       0.54292941       3.82334267       0.00000000
Si       2.92454044       0.54731142       2.86197312       0.00000000
