10
Lattice="16.28999089631971 0.0 0.0 0.0 16.28999089631971 0.0 0.0 0.0 34.69518985606464" Properties=species:S:1:pos:R:3:initial_magmoms:R:1 pbc="T T T"
Si      -0.23547358       1.34008056      -2.01034451       0.00000000
Si      -1.71619127      -1.71010791      -0.24168683       0.00000000
Si       2.30902605      -0.92756889       0.20130160       0.00000000
Si      -0.44367933       1.54290735       1.92350240       0.00000000
Si       2.25748449      -1.89547182       2.42748501       0.00000000
Si       1.20212055       0.33648624      -3.64323984       0.00000000
Si      -3.75581330      -0.65050857       0.57087497       0.00000000
Si       3.80156472       0.83491137      -0.59856175       0.00000000
Si      -0.96805231      -3.89357064       0.65966001       0.00000000
Si       1.18092726       3.29576741       2.09975406       0.00000000
