10
Lattice="16.28999089631971 0.0 0.0 0.0 16.28999089631971 0.0 0.0 0.0 34.69518985606464" Properties=species:S:1:pos:R:3:initial_magmoms:R:1 pbc="T T T"
Si      -1.24383761      -1.41097464       1.46146773       0.00000000
Si      -1.69480834       0.97850772      -1.38912679       0.00000000
Si       0.67838076      -1.92554316      -1.38034890       0.00000000
Si       1.50244299       1.39238775       1.44065754       0.00000000
Si      -2.75852321      -1.16678754      -1.87638631       0.00000000
Si      -2.66404121       2.60411940       0.01124125       0.00000000
Si       2.40725475      -2.88596898       0.07900099       0.00000000
Si      -2.47398804      -2.92400613      -0.06546986       0.00000000
Si      -2.56557420       0.06266763       2.92798218       0.00000000
Si       3.25571940       2.25158751      -0.00270623       0.00000000
