10
Lattice="16.28999089631971 0.0 0.0 0.0 16.28999089631971 0.0 0.0 0.0 34.69518985606464" Properties=species:S:1:pos:R:3:initial_magmoms:R:1 pbc="T T T"
Si      -1.35635427       1.34982198      -1.36164818       0.00000000
Si       1.35764118       1.36233270       1.35689494       0.00000000
Si       1.35987291      -1.36542128      -1.36244617       0.00000000
Si      -1.36451556      -1.38515336       1.36043385       0.00000000
Si       2.41904871      -0.28225683       2.67815790       0.00000000
Si      -2.63650392       0.02531466       2.77988425       0.00000000
Si      -2.71454931       2.70645318       0.00291440       0.00000000
Si       0.00281817       2.70842427      -2.71878599       0.00000000
Si       2.72546361       2.70291825      -0.00898606       0.00000000
Si      -2.71305063      -2.71673465      -0.00402464       0.00000000
