10
Lattice="16.28999089631971 0.0 0.0 0.0 16.28999089631971 0.0 0.0 0.0 34.69518985606464" Properties=species:S:1:pos:R:3:initial_magmoms:R:1 pbc="T T T"
Si      -1.35426915      -1.35371560      -1.35710311       0.00000000
Si       1.36036161      -1.34928363       1.35797049       0.00000000
Si      -1.35071793       1.36065809       1.36147471       0.00000000
Si       1.36081773       1.36134227      -1.35703372       0.00000000
Si      -2.70123386      -0.03051606       2.72097179       0.00000000
Si      -2.71139231       0.00375647      -2.71483073       0.00000000
Si       0.00351864      -2.71137669      -2.71486543       0.00000000
Si      -2.71018359       2.71790831       0.00201232       0.00000000
Si       2.71793763      -2.71171878       0.00000000       0.00000000
Si      -2.71592907      -2.71424373      -0.00100616       0.00000000
