10
Lattice="16.28999089631971 0.0 0.0 0.0 16.28999089631971 0.0 0.0 0.0 34.69518985606464" Properties=species:S:1:pos:R:3:initial_magmoms:R:1 pbc="T T T"
Si      -2.12030640       0.69492000       0.82869507       0.00000000
Si      -0.64987326      -1.34646528      -1.87420051       0.00000000
Si       0.83085516       2.14746997      -0.78352191       0.00000000
Si       1.33014366      -1.03416969       1.77295989       0.00000000
Si      -2.91693627       1.54674364      -1.23001456       0.00000000
Si      -1.21407741       3.16694704      -1.49147766       0.00000000
Si      -2.52312552      -0.23012068      -2.80694651       0.00000000
Si       1.34451144       3.42128281       1.20468706       0.00000000
Si      -3.60285930      -1.15157172       0.83351771       0.00000000
Si      -1.50187284      -3.46566396      -1.11548567       0.00000000
