10
Lattice="16.28999089631971 0.0 0.0 0.0 16.28999089631971 0.0 0.0 0.0 34.69518985606464" Properties=species:S:1:pos:R:3:initial_magmoms:R:1 pbc="T T T"
Si      -2.04792993       0.61911774       1.03887865       0.00000000
Si       0.70626924       2.12143041      -0.82727257       0.00000000
Si      -0.51365628      -1.27381284      -1.98820897       0.00000000
Si       2.23334271      -0.90699462       0.97944576       0.00000000
Si      -2.95476165       1.39365837      -1.07145745       0.00000000
Si      -1.36761066       2.93408964      -1.82472514       0.00000000
Si      -2.55858885      -0.25433577      -2.69616471       0.00000000
Si      -1.34451144      -3.42128281      -1.20468706       0.00000000
Si      -1.52539560       2.01310191       3.07462005       0.00000000
Si       2.16468036      -3.33212602       0.66479490       0.00000000
