10
Lattice="16.28999089631971 0.0 0.0 0.0 16.28999089631971 0.0 0.0 0.0 34.69518985606464" Properties=species:S:1:pos:R:3:initial_magmoms:R:1 pbc="T T T"
Si      -2.28796308       0.14401989       0.47362430       0.00000000
Si       0.35839629       2.33184834       0.32169398       0.00000000
Si       0.01177767      -1.22852664      -2.09999693       0.00000000
Si       1.33299441      -0.87884550       1.89696057       0.00000000
Si       2.69687466       2.61750978       0.51675045       0.00000000
Si      -2.88999261      -1.65942972       1.85248131       0.00000000
Si       1.00989855      -3.34119303      -1.59257949       0.00000000
Si      -0.69170598       2.99255445       2.46353333       0.00000000
Si      -2.83520934       1.95753672       1.92138599       0.00000000
Si       3.69717840       1.15740450      -1.04370128       0.00000000
