10
Lattice="16.28999089631971 0.0 0.0 0.0 16.28999089631971 0.0 0.0 0.0 34.69518985606464" Properties=species:S:1:pos:R:3:initial_magmoms:R:1 pbc="T T T"
Si       0.99812088      -2.11266639       0.50741744       0.00000000
Si      -2.06610957      -0.56417157      -1.12239002       0.00000000
Si       1.76524956       0.49304943      -1.58071373       0.00000000
Si      -0.01177767       1.22852664       2.09999693       0.00000000
Si       2.96085411      -1.16817219      -0.41134640       0.00000000
Si      -2.29974075       1.37254653       2.57362123       0.00000000
Si      -3.45067812      -1.50592905       0.59425954       0.00000000
Si       0.88511715       0.32518098      -3.79555181       0.00000000
Si      -2.78029575       1.22885244      -2.51595779       0.00000000
Si       2.93205339       2.50701471      -1.17835339       0.00000000
