10
Lattice="16.28999089631971 0.0 0.0 0.0 16.28999089631971 0.0 0.0 0.0 34.69518985606464" Properties=species:S:1:pos:R:3:initial_magmoms:R:1 pbc="T T T"
Si      -1.36013355      -1.34280099      -1.36879540       0.00000000
Si       1.34921925       1.37613033      -1.36876070       0.00000000
Si      -1.72918350       0.97546149       1.30662158       0.00000000
Si       1.23538473      -1.51694109       1.39946596       0.00000000
Si      -0.78701877      -2.26245294       2.66833915       0.00000000
Si      -0.60862698       2.26584126       2.96696082       0.00000000
Si       2.69487099       2.70586674       0.02293353       0.00000000
Si       2.70190827      -2.72339478      -0.00749417       0.00000000
Si       2.70044217       0.01205460      -2.72645363       0.00000000
Si      -0.00974142      -2.70234810      -2.73037419       0.00000000
