10
Lattice="16.28999089631971 0.0 0.0 0.0 16.28999089631971 0.0 0.0 0.0 34.69518985606464" Properties=species:S:1:pos:R:3:initial_magmoms:R:1 pbc="T T T"
Si       1.58910579      -0.29186793       1.72688465       0.00000000
Si      -0.60336531       2.29392589       0.32131233       0.00000000
Si      -1.98488763      -1.39308822       0.41967325       0.00000000
Si       1.40664150      -0.84981672      -1.85636717       0.00000000
Si      -1.16387163       2.87854793      -2.07501638       0.00000000
Si       3.52974978      -1.14942240       0.62645670       0.00000000
Si       2.45140065       1.89801210       2.15117236       0.00000000
Si       2.57574222      -2.67877647      -0.77370317       0.00000000
Si       1.35918873       3.55955138       0.84385688       0.00000000
Si      -1.97657973       2.13204239       2.60633881       0.00000000
