10
Lattice="16.28999089631971 0.0 0.0 0.0 16.28999089631971 0.0 0.0 0.0 34.69518985606464" Properties=species:S:1:pos:R:3:initial_magmoms:R:1 pbc="T T T"
Si      -0.98650611       1.67919831      -1.36615856       0.00000000
Si       1.09030599       1.70354534       1.30120913       0.00000000
Si       1.72763595      -1.03905765      -1.33878404       0.00000000
Si      -1.57586202      -1.47908313       1.60524325       0.00000000
Si       1.81597662      -0.06296085       2.71084078       0.00000000
Si      -2.33504118       0.34761702      -2.73061705       0.00000000
Si       0.38198421      -2.36879406      -2.73047827       0.00000000
Si      -2.25849447       3.08966633       0.05329184       0.00000000
Si      -2.69641854      -2.76946290      -0.05509599       0.00000000
Si       2.95222041      -2.54987370       0.26139371       0.00000000
