10
Lattice="16.28999089631971 0.0 0.0 0.0 16.28999089631971 0.0 0.0 0.0 34.69518985606464" Properties=species:S:1:pos:R:3:initial_magmoms:R:1 pbc="T T T"
Si       1.61365482       0.33625818       1.61946828       0.00000000
Si      -0.73249614      -2.07573696      -0.80284714       0.00000000
Si       0.93033819       1.00071099      -1.90986718       0.00000000
Si      -1.98902529       1.05564087       0.67513408       0.00000000
Si      -2.54674602       1.56519207      -1.69801824       0.00000000
Si      -0.96413994       0.74648925      -3.24518170       0.00000000
Si      -1.52215389      -1.52746443      -2.99013722       0.00000000
Si      -1.15706241       2.38738095       2.56588420       0.00000000
Si       2.86479198       2.25890172       1.09740947       0.00000000
Si       0.63372987       1.17460674       3.57114319       0.00000000
