10
Lattice="16.28999089631971 0.0 0.0 0.0 16.28999089631971 0.0 0.0 0.0 34.69518985606464" Properties=species:S:1:pos:R:3:initial_magmoms:R:1 pbc="T T T"
Si       1.57934808      -0.01277136      -1.74031170       0.00000000
Si      -1.87325226       1.11634460      -0.93274601       0.00000000
Si       0.64987326       1.34646528       1.87420051       0.00000000
Si      -0.85199958      -2.11919868       0.75871484       0.00000000
Si      -3.03224341      -1.50270363       1.02770679       0.00000000
Si       3.37014036      -1.22554557      -0.73505270       0.00000000
Si      -1.47043314       2.04138528       2.70289558       0.00000000
Si      -3.49785885      -0.63651546      -1.10899767       0.00000000
Si      -2.26706301       2.89320893       0.64418595       0.00000000
Si       0.74738520      -1.34451144      -3.63106182       0.00000000
