10
Lattice="16.28999089631971 0.0 0.0 0.0 16.28999089631971 0.0 0.0 0.0 34.69518985606464" Properties=species:S:1:pos:R:3:initial_magmoms:R:1 pbc="T T T"
Si       1.33589403       1.34618931      -1.37724715       0.00000000
Si       1.35294966      -1.35909099       1.35994812       0.00000000
Si      -1.36137159       1.35485559       1.35918482       0.00000000
Si      -1.37515293      -1.36710567      -1.38456437       0.00000000
Si       2.71130760       2.71393029      -0.00294909       0.00000000
Si       2.71205694      -2.71606428       0.00062451       0.00000000
Si       2.71210581      -0.00027693       2.71632263       0.00000000
Si      -2.71218726      -2.71726974      -0.00218580       0.00000000
Si      -2.71445157       2.71513575      -0.00010409       0.00000000
Si      -0.00234576       2.71446786       2.71677366       0.00000000
