10
Lattice="16.28999089631971 0.0 0.0 0.0 16.28999089631971 0.0 0.0 0.0 34.69518985606464" Properties=species:S:1:pos:R:3:initial_magmoms:R:1 pbc="T T T"
Si      -1.23758388       1.31515686       1.44885459       0.00000000
Si      -1.88571411      -0.98458389      -1.09633808       0.00000000
Si       0.67948848       1.84577103      -1.48675706       0.00000000
Si       1.49783292      -1.41266880       1.39698872       0.00000000
Si       0.15695415       0.45178686      -3.52249847       0.00000000
Si      -2.74746651       2.44299501      -0.01062367       0.00000000
Si       2.69114058       2.55650373      -0.04015970       0.00000000
Si      -2.56886295      -0.05028723       2.79568792       0.00000000
Si       0.14247234       2.66409918       2.79912274       0.00000000
Si       0.14258637      -2.76377769       2.79332864       0.00000000
