10
Lattice="16.28999089631971 0.0 0.0 0.0 16.28999089631971 0.0 0.0 0.0 34.69518985606464" Properties=species:S:1:pos:R:3:initial_magmoms:R:1 pbc="T T T"
Si      -1.76181237       1.63481553      -0.01890889       0.00000000
Si       2.02341348       1.12259277      -0.83639741       0.00000000
Si       0.57544425      -0.80786997       2.26219703       0.00000000
Si      -0.60799167      -1.80871128      -1.58643844       0.00000000
Si       1.74729798       0.33122457      -3.03704514       0.00000000
Si       1.44599814      -1.99803366      -2.78973769       0.00000000
Si      -0.75509037       3.67518690       0.63849594       0.00000000
Si       3.79470663      -0.32342166      -0.31534476       0.00000000
Si      -3.42520056       1.05296931       1.59275297       0.00000000
Si       3.08926818      -2.44731186       0.64380430       0.00000000
