10
Lattice="16.28999089631971 0.0 0.0 0.0 16.28999089631971 0.0 0.0 0.0 34.69518985606464" Properties=species:S:1:pos:R:3:initial_magmoms:R:1 pbc="T T T"
Si       1.77129315      -1.44601443       0.52105265       0.00000000
Si      -0.27611550      -0.79136820      -2.20064773       0.00000000
Si      -2.02341348      -1.12259277       0.83639741       0.00000000
Si       0.75046401       2.34789399      -0.04722018       0.00000000
Si      -1.36220238       3.35134170      -0.27863723       0.00000000
Si      -0.57741534      -3.12062643      -1.95334028       0.00000000
Si       3.47279994      -0.11855862       1.43253049       0.00000000
Si      -2.39018283       0.15421743      -2.99985188       0.00000000
Si       1.97952822      -0.52036776      -3.26561718       0.00000000
Si       2.90613600      -2.07348894      -1.48821631       0.00000000
