10
Lattice="16.28999089631971 0.0 0.0 0.0 16.28999089631971 0.0 0.0 0.0 34.69518985606464" Properties=species:S:1:pos:R:3:initial_magmoms:R:1 pbc="T T T"
Si      -0.93160881       0.75421071      -1.98619664       0.00000000
Si       1.20575322       1.87479981       0.79091199       0.00000000
Si      -2.10766536      -0.18033030       1.09806868       0.00000000
Si       1.52893053      -1.77228684      -0.51623002       0.00000000
Si       2.05657992      -2.20571487       1.72150689       0.00000000
Si       1.03112442       1.69870491      -2.90496048       0.00000000
Si       1.74509883      -0.44777952       3.11368686       0.00000000
Si      -0.60851295       3.21655824       1.50334342       0.00000000
Si      -1.50563583      -1.32208011      -3.01345240       0.00000000
Si       2.05912116       2.90299203      -1.13213937       0.00000000
