10
Lattice="16.28999089631971 0.0 0.0 0.0 16.28999089631971 0.0 0.0 0.0 34.69518985606464" Properties=species:S:1:pos:R:3:initial_magmoms:R:1 pbc="T T T"
Si      -0.31148109       1.75793535       1.39217997       0.00000000
Si      -0.52764939       0.43342803      -2.23773691       0.00000000
Si       1.57623669      -1.58234544       0.80909228       0.00000000
Si      -2.63717181      -1.00304046       1.18328011       0.00000000
Si       1.10801322       3.11441994       0.14072377       0.00000000
Si      -2.05657992       2.20571487      -1.72150689       0.00000000
Si      -1.48673943      -1.67128884      -2.74734014       0.00000000
Si       0.25793586       0.95145003       3.49862098       0.00000000
Si       1.70570961      -1.03892733       3.31134547       0.00000000
Si      -1.46002383      -3.44096439      -1.13411700       0.00000000
