10
Lattice="16.28999089631971 0.0 0.0 0.0 16.28999089631971 0.0 0.0 0.0 34.69518985606464" Properties=species:S:1:pos:R:3:initial_magmoms:R:1 pbc="T T T"
Si      -1.34420193      -1.34283357       1.38660445       0.00000000
Si       1.37155284       1.37156913       1.38473090       0.00000000
Si      -1.61580510       1.15512390      -1.37798616       0.00000000
Si       1.23285978      -1.49260383      -1.47941413       0.00000000
Si      -2.69211798      -2.71028133       0.03251635       0.00000000
Si       2.70614367      -2.71178001       0.00946138       0.00000000
Si       2.71345788       2.72720664       0.01943626       0.00000000
Si       0.00887805      -2.70311373       2.74589335       0.00000000
Si      -2.72464911       2.72544732       0.01363869       0.00000000
Si      -2.70651834       0.01295055       2.74665665       0.00000000
