10
Lattice="16.28999089631971 0.0 0.0 0.0 16.28999089631971 0.0 0.0 0.0 34.69518985606464" Properties=species:S:1:pos:R:3:initial_magmoms:R:1 pbc="T T T"
Si       1.35645201      -1.35687555      -1.35790110       0.00000000
Si       1.35513252       1.35729909       1.35928891       0.00000000
Si      -1.35799956       1.35786924      -1.35745006       0.00000000
Si      -1.35977517      -1.36001952       1.35765823       0.00000000
Si      -0.00190593       2.71414206      -2.71455317       0.00000000
Si       2.71459818      -0.00079821      -2.71476134       0.00000000
Si      -2.71534752      -2.71461447       0.00055512       0.00000000
Si      -0.00270414      -2.71568961      -2.71427561       0.00000000
Si       2.71446786      -2.71572219      -0.00072860       0.00000000
Si       0.00729792      -2.72012049       2.71035505       0.00000000
