10
Lattice="16.28999089631971 0.0 0.0 0.0 16.28999089631971 0.0 0.0 0.0 34.69518985606464" Properties=species:S:1:pos:R:3:initial_magmoms:R:1 pbc="T T T"
Si      -1.35609363      -1.35627282       1.35710311       0.00000000
Si      -1.35244467       1.35879777      -1.36164818       0.00000000
Si       1.35910728       1.35938421       1.35696433       0.00000000
Si       1.35755973      -1.35681039      -1.36261965       0.00000000
Si      -2.71458189       0.00149868       2.71372049       0.00000000
Si       0.00190593      -2.71414206       2.71455317       0.00000000
Si       2.71624347       2.71402803      -0.00065921       0.00000000
Si      -2.71511946      -2.71588509      -0.00048573       0.00000000
Si       0.00185706       2.71640637       2.71496951       0.00000000
Si       2.71650411      -2.71494027      -0.00020817       0.00000000
