10
Lattice="16.28999089631971 0.0 0.0 0.0 16.28999089631971 0.0 0.0 0.0 34.69518985606464" Properties=species:S:1:pos:R:3:initial_magmoms:R:1 pbc="T T T"
Si       1.65428208       1.37140623       1.12665753       0.00000000
Si       0.92022210      -1.80134820      -1.34669455       0.00000000
Si      -0.57580263       1.53590265      -1.87281270       0.00000000
Si      -1.40094000      -0.75989592       2.10877482       0.00000000
Si      -0.11422548      -3.60540054      -0.26344072       0.00000000
Si       0.08933436       3.09782043       1.91826342       0.00000000
Si      -2.53268775       2.47300119      -0.91609230       0.00000000
Si      -1.59785352      -3.11415930       1.52360542       0.00000000
Si       2.92449483       0.04732245       2.71212451       0.00000000
Si       3.30636501       2.21317569      -0.41197091       0.00000000
