10
Lattice="16.28999089631971 0.0 0.0 0.0 16.28999089631971 0.0 0.0 0.0 34.69518985606464" Properties=species:S:1:pos:R:3:initial_magmoms:R:1 pbc="T T T"
Si      -2.11266639       1.00344771      -0.23141705       0.00000000
Si       1.18706859       0.56555622       1.97245734       0.00000000
Si       1.38170151       0.96780519      -1.76411261       0.00000000
Si      -0.75046401      -2.34789399       0.04722018       0.00000000
Si      -2.94373332       0.16058682      -2.36746230       0.00000000
Si       3.30722838       1.49081193       1.26901197       0.00000000
Si      -3.52896786       0.20470014       1.52211352       0.00000000
Si       1.53961677      -1.48385610       3.20417196       0.00000000
Si       0.44634600       2.63997369       2.77492284       0.00000000
Si      -1.83876633       3.40957845      -0.30857919       0.00000000
