10
Lattice="16.28999089631971 0.0 0.0 0.0 16.28999089631971 0.0 0.0 0.0 34.69518985606464" Properties=species:S:1:pos:R:3:initial_magmoms:R:1 pbc="T T T"
Si      -1.46057769       1.78269615      -0.16830646       0.00000000
Si       0.75334734      -0.12108357       2.23464904       0.00000000
Si      -1.16680383      -2.01396528      -0.40236034       0.00000000
Si       1.92837762       0.25343982      -1.36438910       0.00000000
Si       1.05679746      -2.47089978       2.53982810       0.00000000
Si       0.02880072      -3.67518690       0.76700699       0.00000000
Si      -0.20944053       3.70533969      -0.69036527       0.00000000
Si       3.08822562       0.26156853       2.20606018       0.00000000
Si       3.66935508       1.01665890       0.05679606       0.00000000
Si      -3.07423251       1.44643797      -1.78777474       0.00000000
