10
Lattice="16.28999089631971 0.0 0.0 0.0 16.28999089631971 0.0 0.0 0.0 34.69518985606464" Properties=species:S:1:pos:R:3:initial_magmoms:R:1 pbc="T T T"
Si       1.08338274      -1.45567833       1.42389139       0.00000000
Si      -1.33112106      -1.35371293      -1.34777010       0.00000000
Si       1.38373776       1.36039745      -1.34853339       0.00000000
Si      -1.63056384       1.08048638       1.33316342       0.00000000
Si       2.36512881       0.09050887       2.72662710       0.00000000
Si      -0.55631979       2.65379087       2.67101068       0.00000000
Si      -2.68973964      -0.00267808      -2.70744065       0.00000000
Si      -2.69197137       2.72507591       0.01190046       0.00000000
Si       0.02327841       2.71368920      -2.70966115       0.00000000
Si       0.02287116      -2.71825107      -2.70709370       0.00000000
