10
Lattice="16.28999089631971 0.0 0.0 0.0 16.28999089631971 0.0 0.0 0.0 34.69518985606464" Properties=species:S:1:pos:R:3:initial_magmoms:R:1 pbc="T T T"
Si      -0.08166177       1.10232964       1.99195605       0.00000000
Si       2.22979149      -0.03516034      -0.72408902       0.00000000
Si      -0.74588652      -2.20094746       0.72044602       0.00000000
Si      -0.99729009       1.49630329      -1.74516903       0.00000000
Si       1.72441053      -0.40907611       2.73085992       0.00000000
Si      -0.35119611      -2.86789264      -1.52714433       0.00000000
Si       1.63023804      -1.70196847      -2.28613673       0.00000000
Si       0.82321515       0.13048290      -3.49960167       0.00000000
Si       3.23648973      -1.23279446       1.05858553       0.00000000
Si       0.39954483       3.38739310      -1.30138260       0.00000000
