10
Lattice="16.28999089631971 0.0 0.0 0.0 16.28999089631971 0.0 0.0 0.0 34.69518985606464" Properties=species:S:1:pos:R:3:initial_magmoms:R:1 pbc="T T T"
Si      -0.68380533      -1.78751799       1.48126481       0.00000000
Si      -1.44777375       1.99037736       0.18727552       0.00000000
Si      -0.12947292      -0.54341811      -2.50225319       0.00000000
Si       1.98496908       0.89396262       1.36041446       0.00000000
Si      -1.85684823      -0.30323835       2.89329738       0.00000000
Si      -3.20349366       0.98158653       1.44849172       0.00000000
Si      -2.38444875      -2.87508710       0.22269471       0.00000000
Si       0.87661377       2.41712649       2.87133531       0.00000000
Si      -1.70570961       1.03892733      -3.31134547       0.00000000
Si      -2.01719070       2.79686268      -1.91916550       0.00000000
