10
Lattice="16.28999089631971 0.0 0.0 0.0 16.28999089631971 0.0 0.0 0.0 34.69518985606464" Properties=species:S:1:pos:R:3:initial_magmoms:R:1 pbc="T T T"
Si       1.35472690       1.34928441      -1.38770428       0.00000000
Si      -1.37479877      -1.35369900      -1.37469358       0.00000000
Si      -0.88763721       1.79784585       1.36484014       0.00000000
Si       1.24147882      -1.42317585       1.57717482       0.00000000
Si       2.70682948       2.68545537      -0.02158042       0.00000000
Si       2.69863561      -2.69902494       0.00902075       0.00000000
Si      -2.70803887       2.70673011      -0.01589041       0.00000000
Si       2.70259408       0.00296478      -2.74185830       0.00000000
Si      -0.01367871       2.71321353      -2.73734792       0.00000000
Si      -2.73011182      -2.72173320      -0.01460668       0.00000000
