10
Lattice="16.28999089631971 0.0 0.0 0.0 16.28999089631971 0.0 0.0 0.0 34.69518985606464" Properties=species:S:1:pos:R:3:initial_magmoms:R:1 pbc="T T T"
Si       1.34713413       1.35571896       1.38092484       0.00000000
Si      -1.38717495       1.31113323      -1.39336654       0.00000000
Si      -1.37068947      -1.35886293       1.37995337       0.00000000
Si       1.10835531      -1.52316387      -1.51092085       0.00000000
Si      -2.32438752      -0.42674913      -2.68405979       0.00000000
Si       2.68609005       2.70959715      -0.00983262       0.00000000
Si       2.67929775      -2.73302217      -0.00965221       0.00000000
Si       2.70236348      -0.00109143       2.73893003       0.00000000
Si      -2.74685238       2.70339066       0.00208171       0.00000000
Si      -0.87661377      -2.41712649      -2.87133531       0.00000000
