10
Lattice="16.28999089631971 0.0 0.0 0.0 16.28999089631971 0.0 0.0 0.0 34.69518985606464" Properties=species:S:1:pos:R:3:initial_magmoms:R:1 pbc="T T T"
Si       1.35814617       1.35607734      -1.35686024       0.00000000
Si      -1.35645201       1.35687555       1.35790110       0.00000000
Si       1.35801585      -1.35884664       1.35717250       0.00000000
Si      -1.35915615      -1.35881406      -1.35637451       0.00000000
Si      -0.00172674      -2.71521720       2.71257554       0.00000000
Si      -2.71210581       0.00027693      -2.71632263       0.00000000
Si      -2.71445157       2.71474479       0.00045104       0.00000000
Si       2.71378368      -0.00148239       2.71542055       0.00000000
Si      -2.71376739      -2.71547784       0.00013878       0.00000000
Si       2.71564074      -2.71534752       0.00020817       0.00000000
