10
Lattice="16.28999089631971 0.0 0.0 0.0 16.28999089631971 0.0 0.0 0.0 34.69518985606464" Properties=species:S:1:pos:R:3:initial_magmoms:R:1 pbc="T T T"
Si      -0.97280622      -1.19319363      -1.82729259       0.00000000
Si      -0.19186362      -1.70409690       1.70922479       0.00000000
Si       2.09694933       1.25530740       0.46044012       0.00000000
Si      -1.18232820       2.22777153      -0.10693063       0.00000000
Si      -1.66316013      -0.03292209       3.02781622       0.00000000
Si      -2.68964190      -2.39772510      -0.54461070       0.00000000
Si       2.44706166       2.17512225      -1.81802896       0.00000000
Si       0.07545528       3.49765848       1.52027468       0.00000000
Si       2.07815767      -2.81909853       1.59035900       0.00000000
Si      -2.12827221       0.37497951      -3.18408344       0.00000000
