10
Lattice="16.28999089631971 0.0 0.0 0.0 16.28999089631971 0.0 0.0 0.0 34.69518985606464" Properties=species:S:1:pos:R:3:initial_magmoms:R:1 pbc="T T T"
Si       1.18271916      -0.98259651      -1.72442129       0.00000000
Si       1.44533025       0.44219205       1.79256268       0.00000000
Si      -0.35254818       2.04941232      -1.23171462       0.00000000
Si      -1.75731633      -1.51099524       0.73435880       0.00000000
Si      -2.99284767       0.19520307       1.70214697       0.00000000
Si      -0.51878763      -2.31005232      -2.63589913       0.00000000
Si       2.49059439       0.82624509      -2.51186376       0.00000000
Si       1.31564556      -1.59211944       3.05262329       0.00000000
Si      -0.67181589      -2.78645337       2.45503301       0.00000000
Si       0.37137942       1.79681958       3.35214703       0.00000000
