10
Lattice="16.28999089631971 0.0 0.0 0.0 16.28999089631971 0.0 0.0 0.0 34.69518985606464" Properties=species:S:1:pos:R:3:initial_magmoms:R:1 pbc="T T T"
Si      -0.68742171      -1.94038335       1.09455128       0.00000000
Si      -0.71736273       0.35611569      -2.19072564       0.00000000
Si       1.96068069       0.86760540       1.06235065       0.00000000
Si      -1.78238664       1.81205073      -0.09508500       0.00000000
Si      -2.04709914      -0.54812592       2.48999953       0.00000000
Si       1.24659225       1.37901366      -2.83772190       0.00000000
Si       0.68724252       2.20405329       2.50394354       0.00000000
Si      -3.52038303       0.67105026       1.00112402       0.00000000
Si      -0.65609604       3.59692974       1.08262306       0.00000000
Si      -0.77455692      -1.51529580      -3.55403919       0.00000000
