10
Lattice="16.28999089631971 0.0 0.0 0.0 16.28999089631971 0.0 0.0 0.0 34.69518985606464" Properties=species:S:1:pos:R:3:initial_magmoms:R:1 pbc="T T T"
Si       0.17731665      -1.86015510       1.41341343       0.00000000
Si       2.22879780       0.03282435      -0.75961691       0.00000000
Si      -0.57542796       1.68313167       1.54973091       0.00000000
Si      -1.49610618       0.40322637      -1.81566969       0.00000000
Si      -0.35627859       3.45302388      -0.00281031       0.00000000
Si      -2.37031555       0.52786116       2.60380606       0.00000000
Si       1.91979279      -1.09600749       2.83754769       0.00000000
Si      -1.25468838       2.75445981      -2.08650049       0.00000000
Si      -1.84157310      -1.80892305       2.69220946       0.00000000
Si       3.58318098      -0.51416127       1.22588583       0.00000000
