10
Lattice="16.28999089631971 0.0 0.0 0.0 16.28999089631971 0.0 0.0 0.0 34.69518985606464" Properties=species:S:1:pos:R:3:initial_magmoms:R:1 pbc="T T T"
Si      -1.02105948      -1.09128339      -1.85553449       0.00000000
Si       1.07047617      -1.38992796       1.63667711       0.00000000
Si      -1.60812829       0.86980455       1.55528214       0.00000000
Si       0.74607711       2.09575737      -1.16596720       0.00000000
Si      -3.29108077       0.02371824      -1.73666870       0.00000000
Si       0.68357238       3.64487121       0.62347291       0.00000000
Si      -1.53697357       3.22597386       1.29402722       0.00000000
Si      -1.46083411      -3.39883520      -1.15937511       0.00000000
Si       1.67074638      -3.52253331       0.78803229       0.00000000
Si       3.08093910      -0.52527105       2.52147433       0.00000000
