10
Lattice="16.28999089631971 0.0 0.0 0.0 16.28999089631971 0.0 0.0 0.0 34.69518985606464" Properties=species:S:1:pos:R:3:initial_magmoms:R:1 pbc="T T T"
Si      -0.80702289       1.83245137      -1.21346494       0.00000000
Si       0.59955345       1.66680813       1.56204771       0.00000000
Si      -1.98143415      -1.16592417       0.75899240       0.00000000
Si       2.10603214      -1.07396712      -0.79861433       0.00000000
Si      -2.08876896       0.28626417      -2.51620066       0.00000000
Si      -1.63023804       1.70196847       2.28613673       0.00000000
Si       0.88888014      -2.39809977      -2.43931608       0.00000000
Si       1.60625169       0.46917401       3.34472226       0.00000000
Si      -3.66909444      -0.78685587      -0.89787732       0.00000000
Si      -2.37612456      -0.49897899       3.00658275       0.00000000
