10
Lattice="16.28999089631971 0.0 0.0 0.0 16.28999089631971 0.0 0.0 0.0 34.69518985606464" Properties=species:S:1:pos:R:3:initial_magmoms:R:1 pbc="T T T"
Si       0.94986990      -2.16285588      -0.33595371       0.00000000
Si       1.34980569       1.42014591       1.42690987       0.00000000
Si      -1.93461669      -0.63545661       1.37927335       0.00000000
Si      -0.59448726       1.50698790      -1.93939281       0.00000000
Si      -2.25601839       1.49488443       2.28322233       0.00000000
Si      -2.88582237       1.60085088      -1.58459960       0.00000000
Si       1.87580979       3.29885925       0.07102109       0.00000000
Si      -0.17210385       2.28918483       3.03215312       0.00000000
Si       1.15781175      -3.16441395       1.84477897       0.00000000
Si       2.82495122      -1.86266376      -1.86774720       0.00000000
