10
Lattice="16.28999089631971 0.0 0.0 0.0 16.28999089631971 0.0 0.0 0.0 34.69518985606464" Properties=species:S:1:pos:R:3:initial_magmoms:R:1 pbc="T T T"
Si      -1.52435304      -0.90130941      -1.49619620       0.00000000
Si       2.10017426      -1.06106544      -0.43199005       0.00000000
Si       0.34326288       2.34408932      -0.37845534       0.00000000
Si      -1.02592791      -0.51292323       2.15602969       0.00000000
Si       2.56578970      -1.92725361       1.70471441       0.00000000
Si       0.45887301       0.65246078       3.59789320       0.00000000
Si      -3.68955468      -0.21670587      -0.73009129       0.00000000
Si       3.72478085       0.69179462      -0.25573839       0.00000000
Si      -1.42197039       0.28673658      -3.52433936       0.00000000
Si      -1.72387296       3.23461475      -1.09366239       0.00000000
