10
Lattice="16.28999089631971 0.0 0.0 0.0 16.28999089631971 0.0 0.0 0.0 34.69518985606464" Properties=species:S:1:pos:R:3:initial_magmoms:R:1 pbc="T T T"
Si       2.15072309       0.33721929       0.83809747       0.00000000
Si      -0.76423232      -2.18688363      -0.39215995       0.00000000
Si      -1.22094788       0.32185782       2.01579166       0.00000000
Si       0.10749608       1.17714798      -2.09753357       0.00000000
Si      -1.99259673      -1.77795576      -2.33842241       0.00000000
Si       2.21106125      -1.23587343       2.61189005       0.00000000
Si      -1.73848902       0.33927183      -3.26856627       0.00000000
Si       1.24293026      -3.44146938      -0.74497553       0.00000000
Si       2.20317689       2.68117110       1.48335898       0.00000000
Si      -1.63174065      -1.82791719       2.98965149       0.00000000
