10
Lattice="16.28999089631971 0.0 0.0 0.0 16.28999089631971 0.0 0.0 0.0 34.69518985606464" Properties=species:S:1:pos:R:3:initial_magmoms:R:1 pbc="T T T"
Si      -2.14584067       0.90974763      -0.18756230       0.00000000
Si       1.15101165       1.37815029       1.55882106       0.00000000
Si       1.22094788      -0.32185782      -2.01579166       0.00000000
Si      -0.41079277      -2.14977501       0.97385983       0.00000000
Si      -2.16845119       1.27408977       2.16921387       0.00000000
Si       0.45671556      -2.50874145      -2.40795161       0.00000000
Si       3.37167097       0.01536147      -1.17769418       0.00000000
Si      -1.25855695      -3.30250428      -0.84208742       0.00000000
Si      -0.14541731       1.13870358       3.48162955       0.00000000
Si       1.72915027      -3.17793465       0.85756149       0.00000000
