10
Lattice="16.28999089631971 0.0 0.0 0.0 16.28999089631971 0.0 0.0 0.0 34.69518985606464" Properties=species:S:1:pos:R:3:initial_magmoms:R:1 pbc="T T T"
Si       0.97648776       1.58843790       1.47326757       0.00000000
Si      -1.82619208       0.75051288      -1.35602756       0.00000000
Si       1.69275906      -1.72820610      -0.15890406       0.00000000
Si      -1.73419593      -1.13098212       1.31722933       0.00000000
Si       2.20504698       0.95185728      -1.48002824       0.00000000
Si       2.04310809       2.91309183      -0.11935152       0.00000000
Si      -0.22431330      -2.25882027       2.77670760       0.00000000
Si      -0.84911625       2.07800127      -3.00949715       0.00000000
Si       2.52587853       0.43782633       2.77045899       0.00000000
Si       1.01327058      -3.57397713       1.32785301       0.00000000
