10
Lattice="16.28999089631971 0.0 0.0 0.0 16.28999089631971 0.0 0.0 0.0 34.69518985606464" Properties=species:S:1:pos:R:3:initial_magmoms:R:1 pbc="T T T"
Si      -1.77059335       0.13603779      -1.55032073       0.00000000
Si       1.79488759       1.15527051      -1.05407515       0.00000000
Si       0.52874245      -2.33678421       0.08840339       0.00000000
Si      -0.82572006       0.95377950       2.04226410       0.00000000
Si      -2.49357613       2.28446073      -0.97361696       0.00000000
Si       2.37031555      -0.52786116      -2.60380606       0.00000000
Si      -3.07846858      -1.67280381      -0.76287826       0.00000000
Si      -1.31724265      -3.17466036      -1.08262931       0.00000000
Si       2.54763220      -2.38801626      -1.19039263       0.00000000
Si      -1.57385902       3.13724223       1.14091726       0.00000000
