10
Lattice="16.28999089631971 0.0 0.0 0.0 16.28999089631971 0.0 0.0 0.0 34.69518985606464" Properties=species:S:1:pos:R:3:initial_magmoms:R:1 pbc="T T T"
Si      -1.51993619      -1.02299571       1.58357752       0.00000000
Si       1.23015043       1.51303149       1.52693759       0.00000000
Si      -0.28453517       1.75721859      -1.81091645       0.00000000
Si       1.01194262      -2.12454180      -1.09220519       0.00000000
Si      -2.23402463      -0.51158745      -2.31649504       0.00000000
Si       1.98901845      -0.79705341      -2.74567477       0.00000000
Si       3.15236880       0.99846297      -1.31487904       0.00000000
Si       2.47398804       2.92400613       0.06546986       0.00000000
Si      -0.09477359      -2.43252054       2.99931206       0.00000000
Si      -3.48061688      -1.89060111       0.52122686       0.00000000
