10
Lattice="16.28999089631971 0.0 0.0 0.0 16.28999089631971 0.0 0.0 0.0 34.69518985606464" Properties=species:S:1:pos:R:3:initial_magmoms:R:1 pbc="T T T"
Si      -0.97707583      -1.32748839       1.65346959       0.00000000
Si       2.04970554      -1.08157455      -0.69050405       0.00000000
Si      -1.52144202      -0.04836501      -1.89827898       0.00000000
Si       1.16335035       1.79551638       1.43079573       0.00000000
Si       2.10448881       2.53539189      -0.62159937       0.00000000
Si       2.65173507       0.72187506      -2.06936106       0.00000000
Si      -1.98901845       0.79705341       2.74567477       0.00000000
Si      -2.19490550       2.32780842      -1.52586061       0.00000000
Si      -2.27355362       2.55427200       0.93475833       0.00000000
Si       3.05416323      -1.12614399       1.52946891       0.00000000
