10
Lattice="16.28999089631971 0.0 0.0 0.0 16.28999089631971 0.0 0.0 0.0 34.69518985606464" Properties=species:S:1:pos:R:3:initial_magmoms:R:1 pbc="T T T"
Si      -1.21715200      -1.32413265      -1.64070175       0.00000000
Si      -2.10603214       1.07396712       0.79861433       0.00000000
Si       1.55578785       1.45129239      -1.58768747       0.00000000
Si       1.61679390      -0.90805347       2.12140387       0.00000000
Si      -1.50647869       2.74077525       2.36066204       0.00000000
Si      -2.65692736      -2.94127353      -0.48986166       0.00000000
Si       3.60168153       0.48503475       1.70173062       0.00000000
Si      -2.55154735       0.09816354      -3.10199457       0.00000000
Si       0.17183507      -2.62958067      -3.11316643       0.00000000
Si      -2.91305503       2.90641849      -0.41485062       0.00000000
