10
Lattice="16.28999089631971 0.0 0.0 0.0 16.28999089631971 0.0 0.0 0.0 34.69518985606464" Properties=species:S:1:pos:R:3:initial_magmoms:R:1 pbc="T T T"
Si       2.04172344       1.00797633       0.67152577       0.00000000
Si       0.66958416      -2.25867366      -0.34598063       0.00000000
Si      -1.43759413       1.00359432       1.63289533       0.00000000
Si      -0.88281700       0.46066491      -2.19044734       0.00000000
Si       1.44979371       3.16821182       0.12542318       0.00000000
Si      -0.31869756       3.14692568       1.65596764       0.00000000
Si      -2.17088946      -1.59762546      -2.42550738       0.00000000
Si       3.62432952       0.18927351      -0.87563769       0.00000000
Si       3.06631557      -2.08468017      -0.62059321       0.00000000
Si      -0.22882563      -2.95723773      -2.42967081       0.00000000
