10
Lattice="10.86 0.0 0.0 0.0 10.86 0.0 0.0 0.0 10.86" Properties=species:S:1:pos:R:3:initial_magmoms:R:1 pbc="T T T"
Si      -1.29327396      -1.27635408      -1.37671134       0.00000000
Si      -1.29327396       1.43864592       1.33828866       0.00000000
Si       1.42172604       1.43864592      -1.37671134       0.00000000
Si      -2.65077396      -2.63385408      -0.01921134       0.00000000
Si      -2.65077396       0.08114592       2.69578866       0.00000000
Si       0.06422604      -2.63385408      -2.73421134       0.00000000
Si      -2.65077396       0.08114592      -2.73421134       0.00000000
Si       2.74082508      -2.64692952      -0.02560788       0.00000000
Si      -2.65077396       2.79614592      -0.01921134       0.00000000
Si       0.07060086      -2.73383124       2.72390520       0.00000000
