10
Lattice="10.86 0.0 0.0 0.0 10.86 0.0 0.0 0.0 10.86" Properties=species:S:1:pos:R:3:initial_magmoms:R:1 pbc="T T T"
Si       1.22905878       1.35831450       1.46513346       0.00000000
Si      -1.48594122       1.35831450      -1.24986654       0.00000000
Si      -1.48594122      -1.35668550       1.46513346       0.00000000
Si       2.48815632      -2.48859072       0.05637426       0.00000000
Si       2.58655878       2.71581450       0.10763346       0.00000000
Si      -0.12844122       2.71581450      -2.60736654       0.00000000
Si       2.69044554      -0.23178498      -2.71157910       0.00000000
Si       2.58655878       0.00081450       2.82263346       0.00000000
Si      -2.91156600      -0.07928886      -2.55292536       0.00000000
Si      -0.12844122      -2.71418550       2.82263346       0.00000000
