10
Lattice="10.86 0.0 0.0 0.0 10.86 0.0 0.0 0.0 10.86" Properties=species:S:1:pos:R:3:initial_magmoms:R:1 pbc="T T T"
Si       1.25361324      -1.12490052      -1.25328744       0.00000000
Si      -1.46138676       1.59009948      -1.25328744       0.00000000
Si       1.25361324       1.59009948       1.46171256       0.00000000
Si      -0.20228922      -2.25680574       2.76795336       0.00000000
Si       2.61111324      -2.48240052       0.10421256       0.00000000
Si       0.15539574      -2.18467362      -2.95629834       0.00000000
Si       2.61111324       0.23259948      -2.61078744       0.00000000
Si      -2.49640992       0.37556052      -2.85450756       0.00000000
Si      -2.69044554       0.23178498       2.71157910       0.00000000
Si       2.61111324       0.23259948       2.81921256       0.00000000
