10
Lattice="10.86 0.0 0.0 0.0 10.86 0.0 0.0 0.0 10.86" Properties=species:S:1:pos:R:3:initial_magmoms:R:1 pbc="T T T"
Si      -1.65504228      -0.94367970      -1.34517390       0.00000000
Si      -1.41312492       1.64340036       1.01390046       0.00000000
Si      -0.46752300      -1.54381416       1.78199568       0.00000000
Si       0.88093062       1.69892754      -1.49946192       0.00000000
Si      -0.33762654      -2.37357246      -2.80401942       0.00000000
Si       2.37737346       0.34142754      -2.80401942       0.00000000
Si      -3.05262654      -2.37357246      -0.08901942       0.00000000
Si       2.37737346       3.05642754      -0.08901942       0.00000000
Si       0.92891010      -3.67650096      -1.24307904       0.00000000
Si      -3.05262654       0.34142754       2.62598058       0.00000000
