10
Lattice="10.86 0.0 0.0 0.0 10.86 0.0 0.0 0.0 10.86" Properties=species:S:1:pos:R:3:initial_magmoms:R:1 pbc="T T T"
Si       1.42198668      -1.21189998      -1.34189418       0.00000000
Si      -1.29301332       1.50310002      -1.34189418       0.00000000
Si       1.42198668       1.50310002       1.37310582       0.00000000
Si      -2.74147668      -2.51482848       0.21904620       0.00000000
Si       0.06448668      -2.56939998      -2.69939418       0.00000000
Si       2.77948668      -2.56939998       0.01560582       0.00000000
Si      -2.65051332       0.14560002      -2.69939418       0.00000000
Si       2.77948668       0.14560002      -2.69939418       0.00000000
Si       2.77948668       0.14560002       2.73060582       0.00000000
Si       0.06448668       2.86060002      -2.69939418       0.00000000
