10
Lattice="16.28999089631971 0.0 0.0 0.0 16.28999089631971 0.0 0.0 0.0 34.49183129400761" Properties=species:S:1:pos:R:3:initial_magmoms:R:1 pbc="T T T"
Si       1.50200316       1.11747771      -1.44851976       0.00000000
Si      -1.92709790       1.40307399      -0.01434861       0.00000000
Si       1.26629663      -0.95322564       1.82023843       0.00000000
Si      -0.14133285      -2.06936757      -1.25084696       0.00000000
Si      -3.15063980       0.01091430      -1.42044339       0.00000000
Si       2.19294351      -2.41626312      -1.39929989       0.00000000
Si       0.17996866       1.21417515      -3.50068139       0.00000000
Si       3.28352643      -0.41282118      -1.76170576       0.00000000
Si       2.70449838      -2.66984955       0.90030628       0.00000000
Si      -1.35543293       3.63254035      -0.52520741       0.00000000
