10
Lattice="16.28999089631971 0.0 0.0 0.0 16.28999089631971 0.0 0.0 0.0 34.49183129400761" Properties=species:S:1:pos:R:3:initial_magmoms:R:1 pbc="T T T"
Si       1.82206908       0.25091487      -1.50960482       0.00000000
Si       0.14287959      -2.08640691       1.17455099       0.00000000
Si      -1.92280481       1.13453401      -1.04762098       0.00000000
Si       1.28200671       1.32275356       2.14015034       0.00000000
Si       0.51912972       0.31765500      -3.47008712       0.00000000
Si      -0.83430864       2.06317804      -2.89565984       0.00000000
Si      -1.23298033      -3.56596245      -0.22657697       0.00000000
Si       3.12277671       2.10346647      -0.75343998       0.00000000
Si      -0.99727380      -1.49525910      -3.49533515       0.00000000
Si      -2.70815453       2.92262867       0.30166573       0.00000000
