10
Lattice="16.28999089631971 0.0 0.0 0.0 16.28999089631971 0.0 0.0 0.0 34.49183129400761" Properties=species:S:1:pos:R:3:initial_magmoms:R:1 pbc="T T T"
Si      -0.43536654       0.73326177      -2.27239210       0.00000000
Si       1.33032285      -1.93837968      -0.68597392       0.00000000
Si       1.10910465       0.72088137       2.10803843       0.00000000
Si      -2.49862536       1.29661884       0.56911553       0.00000000
Si      -2.51327007      -0.98820027       1.37739756       0.00000000
Si       0.64747863      -1.41773499       3.06153115       0.00000000
Si      -2.33502489      -2.62806244      -0.41783428       0.00000000
Si       3.45618414       0.41262570       1.71707331       0.00000000
Si       3.32185680      -1.89506457       0.67590230       0.00000000
Si      -0.04823469      -3.89359082      -0.07867591       0.00000000
