10
Lattice="16.28999089631971 0.0 0.0 0.0 16.28999089631971 0.0 0.0 0.0 34.49183129400761" Properties=species:S:1:pos:R:3:initial_magmoms:R:1 pbc="T T T"
Si      -1.66149922      -1.10504844      -1.38260583       0.00000000
Si       1.20691633       1.67187528      -1.34028433       0.00000000
Si      -1.45269072       1.58232915       1.42613455       0.00000000
Si       1.92331795      -1.92614589      -0.18056484       0.00000000
Si      -0.96521671      -1.04334192       2.41601617       0.00000000
Si      -0.25831379      -2.42448794      -2.82526197       0.00000000
Si       2.47597249       0.29685267      -2.81608714       0.00000000
Si       2.99231662       2.49453657       0.20239818       0.00000000
Si      -1.62131179      -3.29088625       1.39302237       0.00000000
Si      -3.27319924      -2.16862906       0.04232150       0.00000000
