10
Lattice="16.28999089631971 0.0 0.0 0.0 16.28999089631971 0.0 0.0 0.0 34.49183129400761" Properties=species:S:1:pos:R:3:initial_magmoms:R:1 pbc="T T T"
Si       1.27777131      -1.47400065      -1.31597102       0.00000000
Si      -1.33972218      -1.36492281       1.37408634       0.00000000
Si       1.37977929       1.34602641       1.37132699       0.00000000
Si      -1.45513683       1.29112911      -1.48294262       0.00000000
Si      -2.70453096       2.71041165      -0.00569116       0.00000000
Si      -2.69304651      -2.73341313      -0.01743563       0.00000000
Si      -2.69568549      -0.00917127       2.73351365       0.00000000
Si       0.01886382       2.70570384       2.73334119       0.00000000
Si       2.72670165       2.71722087      -0.01063729       0.00000000
Si       2.71635750      -2.73649194       0.03480918       0.00000000
