10
Lattice="16.28999089631971 0.0 0.0 0.0 16.28999089631971 0.0 0.0 0.0 34.49183129400761" Properties=species:S:1:pos:R:3:initial_magmoms:R:1 pbc="T T T"
Si      -0.86512932       1.92008601       1.10115233       0.00000000
Si      -0.46162602      -2.13861636       0.95349272       0.00000000
Si       2.34707949      -0.30825567      -0.39096513       0.00000000
Si      -1.10910465      -0.72088137      -2.10803843       0.00000000
Si       1.34666172       2.71792134       1.66316254       0.00000000
Si       2.21275215      -2.61594594      -1.43213613       0.00000000
Si      -2.15321220       1.03386114       2.91149160       0.00000000
Si       2.91680595       1.70463447      -1.67682132       0.00000000
Si       0.22121820      -2.65926105      -2.79401236       0.00000000
Si       0.31591197      -2.21778576       3.15941902       0.00000000
