10
Lattice="16.28999089631971 0.0 0.0 0.0 16.28999089631971 0.0 0.0 0.0 34.49183129400761" Properties=species:S:1:pos:R:3:initial_magmoms:R:1 pbc="T T T"
Si      -0.01464471      -2.28481911       0.80828203       0.00000000
Si      -1.55975121       1.39771458       1.58586631       0.00000000
Si       2.49862536      -1.29661884      -0.56911553       0.00000000
Si       0.16695621       1.08740637      -2.65318213       0.00000000
Si       2.06325882      -0.56335707      -2.84150763       0.00000000
Si      -2.27998098      -2.38689225       1.59286815       0.00000000
Si      -0.58210686       3.52768095       1.38650341       0.00000000
Si       3.60773001      -0.57573747       1.53892290       0.00000000
Si       2.74260069       1.34434854       2.64007523       0.00000000
Si       0.16360047      -3.92468128      -0.98694981       0.00000000
