10
Lattice="16.28999089631971 0.0 0.0 0.0 16.28999089631971 0.0 0.0 0.0 34.49183129400761" Properties=species:S:1:pos:R:3:initial_magmoms:R:1 pbc="T T T"
Si       0.87426801      -0.96910743       1.94282247       0.00000000
Si      -2.09718179      -0.88417137      -0.59591570       0.00000000
Si       0.37910088       2.31949238       0.10740762       0.00000000
Si       1.40916645      -0.94688787      -1.69089399       0.00000000
Si      -1.13149525       2.25591250      -1.92502467       0.00000000
Si      -1.78759034       0.00836817      -2.94801847       0.00000000
Si       3.14271567      -0.82454997       1.32990228       0.00000000
Si       2.64443715       2.42156552      -0.67717850       0.00000000
Si      -0.19813201      -3.05867460       1.99442228       0.00000000
Si      -2.41218152      -2.62097859       1.02664993       0.00000000
