10
Lattice="16.28999089631971 0.0 0.0 0.0 16.28999089631971 0.0 0.0 0.0 34.49183129400761" Properties=species:S:1:pos:R:3:initial_magmoms:R:1 pbc="T T T"
Si      -0.43217370      -1.58877999       1.68423706       0.00000000
Si       1.89016128      -0.53077707      -1.34028433       0.00000000
Si      -1.86489549      -0.32856930      -1.47325041       0.00000000
Si       0.54988524       2.10900114       1.00623076       0.00000000
Si       2.16124317       1.59272217      -2.40315070       0.00000000
Si      -1.29430566       2.72966643       2.23462352       0.00000000
Si      -2.20462344       1.71634698      -2.57133297       0.00000000
Si       1.45860660      -1.53666828       3.17394009       0.00000000
Si      -1.16483274      -1.92743280      -3.09464332       0.00000000
Si       1.20523194      -2.15767566      -2.94350004       0.00000000
