10
Lattice="16.28999089631971 0.0 0.0 0.0 16.28999089631971 0.0 0.0 0.0 34.49183129400761" Properties=species:S:1:pos:R:3:initial_magmoms:R:1 pbc="T T T"
Si       0.43217370       1.58877999      -1.68423706       0.00000000
Si      -2.02678551       0.31017789       1.18331192       0.00000000
Si       1.89078030       0.05211171       1.48970303       0.00000000
Si      -0.55721574      -2.20076271      -0.91586211       0.00000000
Si      -0.94377744      -3.20347737       1.17089485       0.00000000
Si      -1.43272179       1.26021069      -3.15748748       0.00000000
Si      -2.28607344      -1.71595602       2.43626288       0.00000000
Si       3.72547413      -0.83271222       0.24782395       0.00000000
Si       0.98205894       3.69778113      -0.67800631       0.00000000
Si      -3.57904006       1.59798384      -0.16549190       0.00000000
