10
Lattice="16.28999089631971 0.0 0.0 0.0 16.28999089631971 0.0 0.0 0.0 34.49183129400761" Properties=species:S:1:pos:R:3:initial_magmoms:R:1 pbc="T T T"
Si       1.34830701       1.35570267       1.39456071       0.00000000
Si      -1.36852290      -1.35832536       1.39507808       0.00000000
Si      -1.16849799       1.43110908      -1.56342591       0.00000000
Si       1.48292757      -1.33071381      -1.52585738       0.00000000
Si       2.70106119      -2.71124244       0.01797370       0.00000000
Si      -2.70313002       2.71328904       0.01284132       0.00000000
Si      -2.72075580      -2.69772174       0.02657252       0.00000000
Si       2.70405855       2.72369318       0.02935256       0.00000000
Si       2.70819621       0.00086337       2.75560913       0.00000000
Si      -0.00777033      -2.71432125       2.75522972       0.00000000
