10
Lattice="16.28999089631971 0.0 0.0 0.0 16.28999089631971 0.0 0.0 0.0 34.49183129400761" Properties=species:S:1:pos:R:3:initial_magmoms:R:1 pbc="T T T"
Si       1.26368046      -1.12195746       1.62273809       0.00000000
Si      -2.26844766      -0.14455746       0.61292018       0.00000000
Si       0.27409554      -0.89713917      -2.17246921       0.00000000
Si       0.41446647       2.37689738      -0.00169010       0.00000000
Si      -1.73354922      -0.12233790      -3.02079627       0.00000000
Si      -3.14271567       0.82454997      -1.32990228       0.00000000
Si       0.11525175      -3.21160608      -1.78378054       0.00000000
Si      -2.41090371       0.90856565       2.71937199       0.00000000
Si       1.22771214       0.21980097       3.58246157       0.00000000
Si      -0.49827852       3.24611549      -2.00708078       0.00000000
