10
Lattice="16.28999089631971 0.0 0.0 0.0 16.28999089631971 0.0 0.0 0.0 34.49183129400761" Properties=species:S:1:pos:R:3:initial_magmoms:R:1 pbc="T T T"
Si      -2.00764476       0.77480127      -0.84832706       0.00000000
Si      -0.15884379      -2.31446691       0.38868866       0.00000000
Si      -0.27409554       0.89713917       2.17246921       0.00000000
Si       1.69266132       1.23786410      -1.29068505       0.00000000
Si      -0.59412888       2.50339248      -1.62984341       0.00000000
Si      -2.71899648      -1.16131410      -2.08216954       0.00000000
Si       1.98623970      -2.81408121       1.43510243       0.00000000
Si      -2.37962691      -2.69045640       1.26692016       0.00000000
Si      -2.54254320       0.75258171       2.78538939       0.00000000
Si      -3.41681121       1.72168914       0.84256693       0.00000000
