10
Lattice="16.28999089631971 0.0 0.0 0.0 16.28999089631971 0.0 0.0 0.0 34.49183129400761" Properties=species:S:1:pos:R:3:initial_magmoms:R:1 pbc="T T T"
Si      -0.28754098       1.19015717       2.00101022       0.00000000
Si       2.17640753       0.35682756      -0.82111299       0.00000000
Si       0.04699176      -2.22384142       0.81645659       0.00000000
Si      -1.67877477       1.11008694      -1.25643464       0.00000000
Si       3.61263167      -0.79175494       0.68469773       0.00000000
Si       2.56246424       2.67566019      -0.82601084       0.00000000
Si       2.31886358      -0.69629554      -2.92756480       0.00000000
Si       1.32434279      -3.57920200      -0.63820271       0.00000000
Si      -0.26347397       3.51910752       1.74042429       0.00000000
Si       1.36902626      -2.32053886       2.86861823       0.00000000
