10
Lattice="16.28999089631971 0.0 0.0 0.0 16.28999089631971 0.0 0.0 0.0 34.49183129400761" Properties=species:S:1:pos:R:3:initial_magmoms:R:1 pbc="T T T"
Si      -1.81889253       1.44264240       0.15348874       0.00000000
Si       0.71529390      -0.82510479       2.10783148       0.00000000
Si       1.74812877       1.05687891      -1.25460657       0.00000000
Si      -0.79532667      -2.06075016      -0.96501300       0.00000000
Si       2.52679077      -1.96579575       1.02468390       0.00000000
Si      -0.51818490       3.29519400       0.90965358       0.00000000
Si       3.47754033      -0.35577360      -0.47622898       0.00000000
Si      -1.28326104      -2.06513217       2.84492233       0.00000000
Si      -1.18460880      -3.49672995       0.90385894       0.00000000
Si       1.53282384       0.56446479      -3.53744970       0.00000000
