10
Lattice="16.28999089631971 0.0 0.0 0.0 16.28999089631971 0.0 0.0 0.0 34.49183129400761" Properties=species:S:1:pos:R:3:initial_magmoms:R:1 pbc="T T T"
Si      -1.07266392       1.63872513       1.35663347       0.00000000
Si       0.02523321      -2.09067489       1.19948860       0.00000000
Si      -1.42570080       0.23977251      -1.94492647       0.00000000
Si       2.37627117       0.07501545      -0.47515973       0.00000000
Si      -2.53835667       0.25480818       2.57726557       0.00000000
Si       1.71088983      -3.44887808       0.23447560       0.00000000
Si       2.94143643       2.18673702      -1.22439171       0.00000000
Si      -1.56002814      -2.06791776      -2.98609747       0.00000000
Si       2.92245858      -0.99106731      -2.53425423       0.00000000
Si      -0.85597434       2.25266265      -3.23078266       0.00000000
