10
Lattice="16.28999089631971 0.0 0.0 0.0 16.28999089631971 0.0 0.0 0.0 34.49183129400761" Properties=species:S:1:pos:R:3:initial_magmoms:R:1 pbc="T T T"
Si      -1.93300398      -1.32136498       0.22906038       0.00000000
Si       1.68565662      -1.35820318      -0.96501300       0.00000000
Si      -0.02523321       2.09067489      -1.19948860       0.00000000
Si       1.17431352       0.03873762       2.11172906       0.00000000
Si       3.10179519      -0.65466904       0.80704032       0.00000000
Si      -3.48210153       0.42091731       0.40596908       0.00000000
Si       2.35103796       2.16569034      -1.67464833       0.00000000
Si      -0.54231039      -0.89317093       3.48495311       0.00000000
Si      -2.56358988       2.34548307       1.37777697       0.00000000
Si      -1.37464794       1.36316349       3.23537008       0.00000000
