10
Lattice="16.28999089631971 0.0 0.0 0.0 16.28999089631971 0.0 0.0 0.0 34.49183129400761" Properties=species:S:1:pos:R:3:initial_magmoms:R:1 pbc="T T T"
Si       1.58058612      -0.14830416      -1.71327920       0.00000000
Si       0.21719457      -2.08883575       1.04237822       0.00000000
Si      -2.17323261      -0.12199581      -0.87329916       0.00000000
Si       0.49935366       1.78168617       1.47376779       0.00000000
Si      -3.44632869      -0.32558823       1.09270183       0.00000000
Si       0.39164418       0.83401542      -3.57087231       0.00000000
Si       2.41292367      -2.40463858      -1.46369617       0.00000000
Si       2.52293004      -2.58289516       0.93272862       0.00000000
Si      -0.02324583       3.76904988       0.41241906       0.00000000
Si      -2.91597516       2.01041406      -1.40840573       0.00000000
