10
Lattice="16.28999089631971 0.0 0.0 0.0 16.28999089631971 0.0 0.0 0.0 34.49183129400761" Properties=species:S:1:pos:R:3:initial_magmoms:R:1 pbc="T T T"
Si       0.92450637       0.00948241      -2.09796681       0.00000000
Si       1.25760429      -1.54255290       1.24512131       0.00000000
Si      -2.35779831       0.10028124      -0.41500595       0.00000000
Si      -0.09148464      -2.13803385      -2.57926609       0.00000000
Si       2.23629120       0.15970879       2.65118160       0.00000000
Si      -3.12233688       1.18286903       1.51301952       0.00000000
Si      -1.30846167       2.47636019       2.42946799       0.00000000
Si       3.02044293      -2.16175209      -0.52710446       0.00000000
Si       0.70731180       2.09831816      -3.14034503       0.00000000
Si      -0.33969537      -2.80198167       2.60944646       0.00000000
