10
Lattice="16.28999089631971 0.0 0.0 0.0 16.28999089631971 0.0 0.0 0.0 34.49183129400761" Properties=species:S:1:pos:R:3:initial_magmoms:R:1 pbc="T T T"
Si       1.35798327       1.35583299      -1.35777170       0.00000000
Si      -1.35830907       1.35568638       1.35880645       0.00000000
Si       1.35596331      -1.35848826       1.35884095       0.00000000
Si      -1.35723393      -1.35936792      -1.35808212       0.00000000
Si      -0.00252495       2.69653257       2.72875377       0.00000000
Si      -2.71171485       2.71388142      -0.00234545       0.00000000
Si       0.00086337       2.71344159      -2.71575035       0.00000000
Si      -2.71480995      -0.00177561      -2.71557789       0.00000000
Si       2.71568961       2.71479366      -0.00175908       0.00000000
Si      -2.71547784      -2.71568961      -0.00151764       0.00000000
