10
Lattice="16.28999089631971 0.0 0.0 0.0 16.28999089631971 0.0 0.0 0.0 34.49183129400761" Properties=species:S:1:pos:R:3:initial_magmoms:R:1 pbc="T T T"
Si       1.36355445      -1.77051123       0.63965137       0.00000000
Si       1.66143339       1.44430398      -1.00688610       0.00000000
Si      -1.01335203      -1.59265701      -1.59869727       0.00000000
Si      -1.01947707       1.24349715       1.98193623       0.00000000
Si      -0.12357594       1.90421955      -2.64473163       0.00000000
Si      -2.72271060       2.26562949       0.54935170       0.00000000
Si      -2.02413024      -2.94431976       0.62809660       0.00000000
Si      -2.42095464       2.17714221      -1.90532983       0.00000000
Si       0.49099689      -1.54067562      -3.46794862       0.00000000
Si       3.34785564      -2.06018001      -0.58029089       0.00000000
