10
Lattice="16.28999089631971 0.0 0.0 0.0 16.28999089631971 0.0 0.0 0.0 34.49183129400761" Properties=species:S:1:pos:R:3:initial_magmoms:R:1 pbc="T T T"
Si      -1.29220425      -1.91173576       0.02355793       0.00000000
Si       2.28366252      -0.19899864       0.53314053       0.00000000
Si      -0.67768029       1.47199698       1.70941611       0.00000000
Si      -0.75100158       0.55231245      -2.19257796       0.00000000
Si       0.48625650       2.49241887      -2.46430476       0.00000000
Si      -3.08766964       0.36947349      -1.70431132       0.00000000
Si       2.56627773       1.71589086       1.98569584       0.00000000
Si       0.06123411      -3.65725880      -0.55086935       0.00000000
Si       3.55675860       0.00459378      -1.43286046       0.00000000
Si      -0.12074148       3.69180270       1.04134346       0.00000000
