10
Lattice="16.28999089631971 0.0 0.0 0.0 16.28999089631971 0.0 0.0 0.0 34.49183129400761" Properties=species:S:1:pos:R:3:initial_magmoms:R:1 pbc="T T T"
Si      -1.35578412      -1.34084619      -1.36994732       0.00000000
Si      -1.37156913       1.35215145       1.34452683       0.00000000
Si       1.36516716       1.37220444      -1.37446575       0.00000000
Si       1.37373570      -1.34734590       1.49028939       0.00000000
Si       2.15907660       0.66119481       2.69043333       0.00000000
Si      -2.47103010      -0.35992755       2.53615128       0.00000000
Si       0.09073530       1.71061290       3.12734160       0.00000000
Si       2.71645524      -2.67296094      -0.01041654       0.00000000
Si      -2.68983738      -2.70205488       0.01365877       0.00000000
Si       0.00252495      -2.69653257      -2.72875377       0.00000000
