10
Lattice="16.28999089631971 0.0 0.0 0.0 16.28999089631971 0.0 0.0 0.0 34.49183129400761" Properties=species:S:1:pos:R:3:initial_magmoms:R:1 pbc="T T T"
Si       1.35974259       1.34213310       1.34925221       0.00000000
Si       1.35304740      -1.35394335      -1.35604711       0.00000000
Si      -1.36091547       1.35959598      -1.35449497       0.00000000
Si      -1.36516716      -1.37220444       1.37446575       0.00000000
Si      -0.07268598       2.63987595       2.65535512       0.00000000
Si       2.70708849      -2.71292031       0.00258689       0.00000000
Si       2.71015101       0.00206883      -2.71257710       0.00000000
Si      -0.00465894      -2.71290402      -2.71205972       0.00000000
Si       2.70857088       2.71878471       0.00217299       0.00000000
Si      -0.00454491       2.71697652      -2.71268057       0.00000000
