10
Lattice="16.28999089631971 0.0 0.0 0.0 16.28999089631971 0.0 0.0 0.0 34.49183129400761" Properties=species:S:1:pos:R:3:initial_magmoms:R:1 pbc="T T T"
Si       0.46895652       1.01662632      -2.05174773       0.00000000
Si      -1.83469383       0.88482393       1.24187908       0.00000000
Si       1.92829617      -0.50867154       1.32100338       0.00000000
Si      -0.78030729      -2.28747438      -0.30370074       0.00000000
Si      -1.73677464      -0.92343123       2.72578747       0.00000000
Si       0.55123731      -0.96754455       3.24023343       0.00000000
Si       1.07836542      -0.89143767      -3.21112230       0.00000000
Si      -3.72547413       0.83271222      -0.24782395       0.00000000
Si      -2.34149202      -2.72618037       1.41940863       0.00000000
Si       3.44790882      -1.94667129       0.11171910       0.00000000
