10
Lattice="16.28999089631971 0.0 0.0 0.0 16.28999089631971 0.0 0.0 0.0 34.49183129400761" Properties=species:S:1:pos:R:3:initial_magmoms:R:1 pbc="T T T"
Si       0.60940890      -1.90806399      -1.15937457       0.00000000
Si       1.56209697       1.71510894      -0.01576278       0.00000000
Si      -0.46895652      -1.01662632       2.05174773       0.00000000
Si      -1.87209567       0.87408882      -1.22059761       0.00000000
Si      -1.60238214      -2.70589932      -1.72138479       0.00000000
Si       0.44458668       3.48159654       0.97022126       0.00000000
Si       1.49962482      -1.02752433      -3.20660387       0.00000000
Si      -2.55702501      -0.75280977      -2.82381331       0.00000000
Si       1.95354567       2.53333935      -2.20858218       0.00000000
Si      -1.24926381      -3.30410070       1.74804699       0.00000000
