10
Lattice="16.28999089631971 0.0 0.0 0.0 16.28999089631971 0.0 0.0 0.0 34.49183129400761" Properties=species:S:1:pos:R:3:initial_magmoms:R:1 pbc="T T T"
Si       1.07623143       1.86330070      -0.96556486       0.00000000
Si      -1.23118191       1.50804838       1.41313112       0.00000000
Si       1.90387746      -0.90660922       1.41564902       0.00000000
Si      -1.28200671      -1.32275356      -2.14015034       0.00000000
Si       0.30028986      -1.99365721       2.84504102       0.00000000
Si       1.84077000       0.78071291      -2.89359033       0.00000000
Si      -1.58495184      -2.96985175       1.49867091       0.00000000
Si      -1.13912712      -3.40916047      -0.96559936       0.00000000
Si      -0.68854572       3.48029497      -1.24012000       0.00000000
Si      -2.64312743       2.75698639       0.00189705       0.00000000
