10
Lattice="16.28999089631971 0.0 0.0 0.0 16.28999089631971 0.0 0.0 0.0 34.49183129400761" Properties=species:S:1:pos:R:3:initial_magmoms:R:1 pbc="T T T"
Si      -1.34814411      -1.35620766      -1.36007575       0.00000000
Si       1.35567009      -1.35283563       1.35928934       0.00000000
Si      -1.36143675       1.36243861       1.35797865       0.00000000
Si       1.38186441       1.34455495      -1.36380432       0.00000000
Si      -0.01931994       2.67992070      -2.63710893       0.00000000
Si      -2.62040940       0.07602543      -2.69659357       0.00000000
Si       2.71396287      -2.71111212      -0.00158663       0.00000000
Si      -0.00249237      -2.71005327       2.71595730       0.00000000
Si      -2.71744893      -2.70946683      -0.00137967       0.00000000
Si       2.71280628       0.00405621       2.71523297       0.00000000
