10
Lattice="16.28999089631971 0.0 0.0 0.0 16.28999089631971 0.0 0.0 0.0 34.49183129400761" Properties=species:S:1:pos:R:3:initial_magmoms:R:1 pbc="T T T"
Si       1.29443598      -1.37010303       1.53639464       0.00000000
Si       1.08929601       1.84446783      -1.25028616       0.00000000
Si      -1.41863813       1.33613838       1.54183746       0.00000000
Si      -1.18418363      -1.54463409      -1.66336057       0.00000000
Si      -2.63149379       2.64596841      -0.05734960       0.00000000
Si      -2.72310875      -2.59522506       0.08577433       0.00000000
Si       2.54254320      -2.89370673       0.05392111       0.00000000
Si      -0.72088300       3.58871958      -1.36721354       0.00000000
Si       2.69444745       2.84237694       0.11615821       0.00000000
Si       2.65113234      -0.00726534       2.92689911       0.00000000
