10
Lattice="16.28999089631971 0.0 0.0 0.0 16.28999089631971 0.0 0.0 0.0 34.49183129400761" Properties=species:S:1:pos:R:3:initial_magmoms:R:1 pbc="T T T"
Si      -0.87076566       1.51495371      -1.52416038       0.00000000
Si       0.90099990       1.64126637       1.45434340       0.00000000
Si      -1.77792318      -1.11897639       1.22758708       0.00000000
Si       1.74092859      -0.84808998      -2.01773877       0.00000000
Si       2.09631123      -2.40153696      -0.14093370       0.00000000
Si       2.17326519       0.20903328       2.79086122       0.00000000
Si       2.35571319       2.82106962       0.01948790       0.00000000
Si       3.25272204       1.09366173      -1.44293208       0.00000000
Si      -1.65538980       0.29691783      -3.35043489       0.00000000
Si      -0.55978956      -2.49950502       2.77141816       0.00000000
