10
Lattice="16.28999089631971 0.0 0.0 0.0 16.28999089631971 0.0 0.0 0.0 34.49183129400761" Properties=species:S:1:pos:R:3:initial_magmoms:R:1 pbc="T T T"
Si      -1.65188745       1.12225720      -1.35070087       0.00000000
Si       1.16808001      -1.65439026      -1.44338047       0.00000000
Si      -0.30959145      -0.89253954       2.35210277       0.00000000
Si       0.65609508       2.24754433       1.02299380       0.00000000
Si      -2.26549917       0.39161975       2.47717022       0.00000000
Si       1.78759034      -0.00836817       2.94801847       0.00000000
Si      -0.04018743       2.18583781      -2.77562820       0.00000000
Si       3.19675679      -0.95525604       1.25712448       0.00000000
Si      -1.54034982       2.58318349       2.02118795       0.00000000
Si       2.48540507      -2.89137141       0.02328200       0.00000000
