10
Lattice="16.28999089631971 0.0 0.0 0.0 16.28999089631971 0.0 0.0 0.0 34.49183129400761" Properties=species:S:1:pos:R:3:initial_magmoms:R:1 pbc="T T T"
Si      -2.30575176      -0.51225534       0.06591393       0.00000000
Si       0.78534972      -1.78809466      -1.34928670       0.00000000
Si       0.22495417       2.18163825      -0.94362805       0.00000000
Si       1.34703380       1.15711128       1.84038167       0.00000000
Si      -1.14655536      -1.90282513      -2.87368853       0.00000000
Si      -2.87388180      -0.33133860      -2.22755269       0.00000000
Si       1.87384589      -0.85945063      -3.19732556       0.00000000
Si       3.30161552       1.88041986       0.59836462       0.00000000
Si       2.48836985       2.52428211      -1.51146738       0.00000000
Si       2.70815453      -2.92262867      -0.30166573       0.00000000
