10
Lattice="16.28999089631971 0.0 0.0 0.0 16.28999089631971 0.0 0.0 0.0 34.49183129400761" Properties=species:S:1:pos:R:3:initial_magmoms:R:1 pbc="T T T"
Si      -1.33315731      -1.34413677      -1.35912378       0.00000000
Si       1.35528298      -1.35578412       1.35497786       0.00000000
Si      -1.35755973       1.35769005       1.35549524       0.00000000
Si       1.36021500       1.34469063      -1.39282232       0.00000000
Si      -2.60266959       0.06372648      -2.72770867       0.00000000
Si      -0.00079821      -2.71378368       2.71205972       0.00000000
Si       2.71448645       0.00079821       2.71257710       0.00000000
Si      -2.71520091       0.00089595       2.71240464       0.00000000
Si      -0.00057015       2.71568961       2.71230116       0.00000000
Si      -2.71358820       2.71456560      -0.00524276       0.00000000
