10
Lattice="16.28999089631971 0.0 0.0 0.0 16.28999089631971 0.0 0.0 0.0 34.49183129400761" Properties=species:S:1:pos:R:3:initial_magmoms:R:1 pbc="T T T"
Si      -1.35469269       1.35602847      -1.35749576       0.00000000
Si       1.36015377      -1.36071999      -1.35749576       0.00000000
Si       1.35267992       1.35555606       1.37122352       0.00000000
Si      -1.35086454      -1.35627282       1.37877723       0.00000000
Si       0.12775206      -2.63748132       2.76755711       0.00000000
Si      -2.71235016      -0.00241092      -2.71523297       0.00000000
Si       0.00307303       2.71275741      -2.71516399       0.00000000
Si      -2.71393029       2.71430496      -0.00048289       0.00000000
Si       2.71444247       2.71383255       0.00306977       0.00000000
Si      -2.71541268      -2.71740006      -0.00006898       0.00000000
