10
Lattice="16.28999089631971 0.0 0.0 0.0 16.28999089631971 0.0 0.0 0.0 34.49183129400761" Properties=species:S:1:pos:R:3:initial_magmoms:R:1 pbc="T T T"
Si       1.35567009      -1.35350420       1.35832357       0.00000000
Si      -1.35658233       1.36084542       1.35911688       0.00000000
Si      -1.33924977      -1.35677954      -1.38420280       0.00000000
Si       1.35949824       1.35121803      -1.39283266       0.00000000
Si      -2.71146398      -2.71451251      -0.00410453       0.00000000
Si       2.71218726      -2.71436590      -0.00248341       0.00000000
Si      -0.00120546      -2.71200385       2.71568136       0.00000000
Si       2.71375110       0.00310487       2.71575035       0.00000000
Si      -2.71558047       0.00303971       2.71568136       0.00000000
Si       2.71282257       2.71970835      -0.00131069       0.00000000
