10
Lattice="16.28999089631971 0.0 0.0 0.0 16.28999089631971 0.0 0.0 0.0 34.49183129400761" Properties=species:S:1:pos:R:3:initial_magmoms:R:1 pbc="T T T"
Si       1.99464275       0.78771924      -0.97762770       0.00000000
Si      -1.29691206      -1.60459758      -1.30410380       0.00000000
Si       1.41690420      -1.25646399       1.54963607       0.00000000
Si      -1.25066475       1.43833648       1.56556785       0.00000000
Si       2.77616202      -2.59444314       0.11398867       0.00000000
Si       2.71590531       2.69093925       0.13339723       0.00000000
Si      -2.71264338      -2.71599912       0.17826078       0.00000000
Si      -2.65184910       2.77370223       0.29226325       0.00000000
Si       0.08143371      -2.61733059       2.92778555       0.00000000
Si      -2.63252916       0.09378153       2.92937217       0.00000000
