10
Lattice="16.28999089631971 0.0 0.0 0.0 16.28999089631971 0.0 0.0 0.0 34.49183129400761" Properties=species:S:1:pos:R:3:initial_magmoms:R:1 pbc="T T T"
Si       1.22354190       1.39215969       1.40609478       0.00000000
Si      -2.27879181       0.22711518      -0.53131247       0.00000000
Si       1.26693846       0.04872339      -2.01346178       0.00000000
Si      -0.58683096      -1.79251902       1.54140631       0.00000000
Si      -2.54019744      -1.94909850       0.21471177       0.00000000
Si       3.15063980      -0.01091430       1.42044339       0.00000000
Si       2.00927376      -2.16619533      -1.97293385       0.00000000
Si       3.00930694      -2.08028187       0.16959643       0.00000000
Si      -0.12965211       1.48481721       3.36133431       0.00000000
Si      -2.37241044       0.76525533      -2.82815929       0.00000000
