10
Lattice="16.28999089631971 0.0 0.0 0.0 16.28999089631971 0.0 0.0 0.0 34.49183129400761" Properties=species:S:1:pos:R:3:initial_magmoms:R:1 pbc="T T T"
Si      -1.35496962       1.35669636      -1.35922036       0.00000000
Si      -1.35614250      -1.35782037       1.35763373       0.00000000
Si       1.35903790       1.35690813       1.35766822       0.00000000
Si       1.35890432      -1.35840681      -1.36042757       0.00000000
Si      -2.71326240       2.71497285       0.00165561       0.00000000
Si      -2.71313208      -2.71581993       0.00082780       0.00000000
Si      -2.71391400      -0.00008145       2.71516399       0.00000000
Si       0.00149652      -2.71484253       2.71468110       0.00000000
Si       0.00150919       2.71508688       2.71523297       0.00000000
Si       2.71602260      -0.00050499       2.71506051       0.00000000
