10
Lattice="16.28999089631971 0.0 0.0 0.0 16.28999089631971 0.0 0.0 0.0 34.49183129400761" Properties=species:S:1:pos:R:3:initial_magmoms:R:1 pbc="T T T"
Si      -0.42375340       0.69144534       2.14111612       0.00000000
Si       1.10662857       1.52821377      -1.32628064       0.00000000
Si      -1.62685102      -1.24506099      -1.26367793       0.00000000
Si       1.76445135      -0.25531317       2.03277721       0.00000000
Si       2.33157141       0.02412549      -2.66208103       0.00000000
Si       2.25214137       3.03573924       0.15783471       0.00000000
Si      -0.37894450      -2.68294671      -2.65587249       0.00000000
Si      -0.40192317       2.74797639      -2.66001152       0.00000000
Si      -1.90181582      -0.64057167       3.32128928       0.00000000
Si      -2.93872319      -2.66545125       0.11703085       0.00000000
