10
Lattice="16.28999089631971 0.0 0.0 0.0 16.28999089631971 0.0 0.0 0.0 34.49183129400761" Properties=species:S:1:pos:R:3:initial_magmoms:R:1 pbc="T T T"
Si      -0.73980043      -2.07104544       0.85394924       0.00000000
Si       2.33427636      -0.34689555      -0.14845292       0.00000000
Si      -1.00003318      -0.08591346      -2.14253028       0.00000000
Si       0.14133285       2.06936757       1.25084696       0.00000000
Si      -1.74236848       2.12900526      -2.18305821       0.00000000
Si       1.40762949       1.11614193       3.07108539       0.00000000
Si       0.94949930      -0.33909264      -3.42224692       0.00000000
Si       1.64333601       3.18684528      -0.19767280       0.00000000
Si       2.84583123      -0.60048198       2.15115324       0.00000000
Si       2.50175385      -1.62689859      -2.07344311       0.00000000
