10
Lattice="16.28999089631971 0.0 0.0 0.0 16.28999089631971 0.0 0.0 0.0 34.49183129400761" Properties=species:S:1:pos:R:3:initial_magmoms:R:1 pbc="T T T"
Si       1.35784806       1.35747828      -1.35639202       0.00000000
Si       1.35698469      -1.35741312       1.35739229       0.00000000
Si      -1.35752871       1.35817875       1.35756475       0.00000000
Si      -1.35903790      -1.35690813      -1.35766822       0.00000000
Si       2.71123755      -0.00092853      -2.71771638       0.00000000
Si       2.71413717      -0.00079821       2.71502602       0.00000000
Si       2.71460958      -2.71479366       0.00000000       0.00000000
Si      -2.71518040      -2.71472850      -0.00003449       0.00000000
Si      -2.71516411       2.71495656      -0.00006898       0.00000000
Si       2.71467474       2.71546155      -0.00006898       0.00000000
