10
Lattice="16.28999089631971 0.0 0.0 0.0 16.28999089631971 0.0 0.0 0.0 34.49183129400761" Properties=species:S:1:pos:R:3:initial_magmoms:R:1 pbc="T T T"
Si      -1.35717596       1.35523026       1.35570219       0.00000000
Si       1.35725022       1.35533303      -1.35601261       0.00000000
Si      -1.35721431      -1.35967743      -1.35618507       0.00000000
Si       1.35415512      -1.35860229       1.36204869       0.00000000
Si      -2.71284605       2.71262939       0.00065535       0.00000000
Si       0.00061413       2.71264894      -2.71381880       0.00000000
Si      -2.71484972      -0.00289962      -2.71381880       0.00000000
Si       2.71498914      -0.00239463      -2.71381880       0.00000000
Si       2.71564074       2.71367521       0.00120721       0.00000000
Si      -0.01701653       2.71441152       2.71602628       0.00000000
