10
Lattice="16.28999089631971 0.0 0.0 0.0 16.28999089631971 0.0 0.0 0.0 34.49183129400761" Properties=species:S:1:pos:R:3:initial_magmoms:R:1 pbc="T T T"
Si      -1.31732506       1.23698115      -1.46666247       0.00000000
Si       0.71135172       1.93611537       1.23384248       0.00000000
Si      -1.14003284      -1.54950480       1.44148342       0.00000000
Si       1.54106658      -1.38575772      -1.40954397       0.00000000
Si       2.71899648       1.16131410       2.08216954       0.00000000
Si       0.33936957      -1.52914230       3.34908971       0.00000000
Si       2.53068408      -2.69764029       0.43666683       0.00000000
Si       2.56015269      -1.15315281       2.47085821       0.00000000
Si      -2.53404701      -0.34828020      -2.76710871       0.00000000
Si       0.24578352       2.43694085      -2.88307031       0.00000000
