10
Lattice="10.86 0.0 0.0 0.0 10.86 0.0 0.0 0.0 10.86" Properties=species:S:1:pos:R:3:initial_magmoms:R:1 pbc="T T T"
Si      -1.35936792      -1.74524544      -0.63285564       0.00000000
Si       1.15738278      -1.23126336       1.67854332       0.00000000
Si       0.03034284       2.04659958      -1.66848696       0.00000000
Si      -1.42173690       1.37755842       1.95331218       0.00000000
Si      -2.71677018      -0.12056772      -2.09309124       0.00000000
Si      -0.00177018      -2.83556772      -2.09309124       0.00000000
Si      -2.71677018       2.59443228       0.62190876       0.00000000
Si      -1.39681320       1.24205820      -3.43035906       0.00000000
Si       1.23700830      -1.43928666      -3.45822582       0.00000000
Si       2.71322982      -2.83556772       0.62190876       0.00000000
