10
Lattice="16.2900001489832 0.0 0.0 0.0 16.2900001489832 0.0 0.0 0.0 29.24716389574793" Properties=species:S:1:pos:R:3:initial_magmoms:R:1 pbc="T T T"
Si       1.48114057      -1.35837897      -1.26733811       0.00000000
Si      -1.23838210      -1.44171861       1.44263391       0.00000000
Si       1.41012269       1.35669165       1.39185791       0.00000000
Si      -1.37210671       1.57580355      -1.20062533       0.00000000
H       -1.51182604      -1.22553402      -2.57799126       0.00000000
Si       2.75481822       0.23803127      -2.36711921       0.00000000
Si      -2.63655281       2.75437366       0.35347420       0.00000000
Si      -2.65336409      -2.79357685       0.10093196       0.00000000
Si      -2.54620847      -0.10885451       2.91016300       0.00000000
Si       2.79617853      -2.71777948       0.16425453       0.00000000
