10
Lattice="16.2900001489832 0.0 0.0 0.0 16.2900001489832 0.0 0.0 0.0 29.24716389574793" Properties=species:S:1:pos:R:3:initial_magmoms:R:1 pbc="T T T"
Si       1.34822557      -1.34074846       1.35531357       0.00000000
Si      -1.31743747      -1.37787337      -1.37783389       0.00000000
Si       1.35039214       1.31320207      -1.42126593       0.00000000
Si      -1.25490016       1.27247707       1.56679982       0.00000000
Si      -2.61014835       2.66319348       0.18753281       0.00000000
Si      -2.60295632      -2.69438231       0.11072976       0.00000000
Si       2.71691138       2.61773298      -0.05393177       0.00000000
Si      -2.65260335       0.01630629      -2.74236032       0.00000000
Si       2.81952210      -0.07429869       2.63619312       0.00000000
Si       0.00653229       2.75595200      -2.71004221       0.00000000
