10
Lattice="16.2900001489832 0.0 0.0 0.0 16.2900001489832 0.0 0.0 0.0 29.24716389574793" Properties=species:S:1:pos:R:3:initial_magmoms:R:1 pbc="T T T"
H       -0.24837363       1.02685645       1.09393167       0.00000000
Si      -1.62509041      -1.60739947       0.39059587       0.00000000
Si      -0.66761308       1.15429312      -1.95900428       0.00000000
Si       2.27916813      -0.47429964       0.48526894       0.00000000
Si      -1.11190654       3.21073622      -0.93245808       0.00000000
Si      -0.69064714      -2.44716527       2.45749295       0.00000000
Si      -1.79419691      -2.55233351      -1.76693816       0.00000000
Si      -1.93416059       2.95731921       1.26309727       0.00000000
Si       2.74459298       0.89401150       2.40458483       0.00000000
Si      -2.68931612       0.99096958       2.47448555       0.00000000
