10
Lattice="16.2900001489832 0.0 0.0 0.0 16.2900001489832 0.0 0.0 0.0 29.24716389574793" Properties=species:S:1:pos:R:3:initial_magmoms:R:1 pbc="T T T"
Si      -1.91529677      -0.88683575       0.97749871       0.00000000
Si       0.19460034      -1.28676992      -1.96347910       0.00000000
Si       1.85448620      -0.30027357       1.50763280       0.00000000
Si      -0.80811270       2.20199425      -0.62044933       0.00000000
Si      -1.23917217       0.22364052       2.84463765       0.00000000
Si      -3.09151623      -0.18725518      -0.92815875       0.00000000
Si       2.48977991      -1.19373773      -1.89290569       0.00000000
Si      -2.02642715       1.34769778      -2.44722719       0.00000000
Si       2.14527899       1.94215246       2.01837603       0.00000000
Si       0.67976542      -1.11519109       3.31151013       0.00000000
