10
Lattice="16.2900001489832 0.0 0.0 0.0 16.2900001489832 0.0 0.0 0.0 29.24716389574793" Properties=species:S:1:pos:R:3:initial_magmoms:R:1 pbc="T T T"
Si      -1.44336895      -1.38243457       1.30606135       0.00000000
Si       1.68870287       1.06631083       1.31778946       0.00000000
Si      -0.96466937       1.85365541      -1.22726949       0.00000000
Si       0.64532836      -1.86038318      -1.48885613       0.00000000
H       -2.07875063      -0.65171404       2.49422738       0.00000000
H       -0.45836965       2.95901337       1.80109885       0.00000000
Si      -2.83615419      -2.35434485      -0.34271827       0.00000000
Si      -2.11581038       0.73487449      -2.96794370       0.00000000
Si       2.63155178       2.65168622      -0.25067744       0.00000000
Si       3.40078188      -0.49961430       1.61055357       0.00000000
