10
Lattice="16.2900001489832 0.0 0.0 0.0 16.2900001489832 0.0 0.0 0.0 29.24716389574793" Properties=species:S:1:pos:R:3:initial_magmoms:R:1 pbc="T T T"
H       -0.15486903      -1.19219995      -0.89785868       0.00000000
Si       0.76318651      -0.90197731       2.05917582       0.00000000
Si       1.42104187       1.70364080      -0.86665196       0.00000000
Si      -2.13004784       1.07527033      -0.04723417       0.00000000
H        2.58782942      -1.19821096      -0.74439882       0.00000000
H       -3.07139808      -1.11703789       1.28354103       0.00000000
Si       0.21691764       2.80080489      -2.55424256       0.00000000
Si      -1.95388778       2.82864450      -1.69712518       0.00000000
Si      -2.45680895       2.23210469       2.01828829       0.00000000
Si       1.93432349       0.82564237       3.27515591       0.00000000
