10
Lattice="16.2900001489832 0.0 0.0 0.0 16.2900001489832 0.0 0.0 0.0 29.24716389574793" Properties=species:S:1:pos:R:3:initial_magmoms:R:1 pbc="T T T"
Si       0.13080870       2.31930506      -0.12380324       0.00000000
Si       0.16138503      -1.07862607      -2.10775536       0.00000000
Si      -2.12253815      -0.70514524       0.84910366       0.00000000
Si       0.98072317      -0.47353401       2.23185108       0.00000000
Si      -0.79592941      -2.21962655       2.00819801       0.00000000
H        3.12955338       1.38487807       0.19776932       0.00000000
Si      -2.04107186       2.69154785       0.78078229       0.00000000
Si       2.37214982      -0.31775274      -2.63917633       0.00000000
Si      -0.72255925      -3.25126737      -1.63181626       0.00000000
Si      -2.83379214       1.02183913       2.24720584       0.00000000
