10
Lattice="16.2900001489832 0.0 0.0 0.0 16.2900001489832 0.0 0.0 0.0 29.24716389574793" Properties=species:S:1:pos:R:3:initial_magmoms:R:1 pbc="T T T"
Si       1.35835795      -1.30574125      -1.32786394       0.00000000
Si      -1.25126749      -1.39427740       1.37188326       0.00000000
Si      -1.26071569       1.29424051      -1.54177770       0.00000000
Si       1.53593524       1.34627077       1.22969233       0.00000000
Si       1.89266996       0.24780348      -3.05227673       0.00000000
Si       0.53993205       2.25688178      -2.78899376       0.00000000
Si      -2.49497642       0.01295055       2.78712720       0.00000000
Si      -2.60933222       2.69456150      -0.19909890       0.00000000
Si      -2.96676741      -2.33061032       0.01941836       0.00000000
Si       0.20738799       2.70857090       2.63989990       0.00000000
