10
Lattice="16.2900001489832 0.0 0.0 0.0 16.2900001489832 0.0 0.0 0.0 29.24716389574793" Properties=species:S:1:pos:R:3:initial_magmoms:R:1 pbc="T T T"
Si       1.51091380      -1.44970250      -1.07424833       0.00000000
Si       1.40063050       1.20754513       1.48129573       0.00000000
Si      -1.30009351      -1.49944564       1.33277864       0.00000000
Si      -1.34655911       1.45925821      -1.54787690       0.00000000
Si       0.04460202      -2.61810602      -2.42619848       0.00000000
Si      -2.55002033       2.62635527       0.10342467       0.00000000
Si       2.38630583       2.90877501       0.18023272       0.00000000
Si       2.72297126      -0.22444362      -2.62858886       0.00000000
Si      -2.56456730      -0.20101860       2.86659058       0.00000000
Si       0.10889865       2.47054142       2.98684322       0.00000000
