10
Lattice="16.2900001489832 0.0 0.0 0.0 16.2900001489832 0.0 0.0 0.0 29.24716389574793" Properties=species:S:1:pos:R:3:initial_magmoms:R:1 pbc="T T T"
Si      -1.39639510      -1.35109261      -1.30404037       0.00000000
Si       1.36629118      -1.38754963       1.32384363       0.00000000
Si      -1.40638087       1.35459496       1.32179633       0.00000000
Si       1.30596931       1.34452774      -1.45126767       0.00000000
Si       2.67335192       2.66268197      -0.01877668       0.00000000
Si      -0.04132773      -2.70935282       2.67286906       0.00000000
Si      -0.02713914       2.68376123       2.70773168       0.00000000
Si       2.67449222      -2.71951778      -0.10830225       0.00000000
Si      -2.76721491       2.65294055      -0.12266261       0.00000000
Si       2.77819437      -0.05602131       2.66704888       0.00000000
