10
Lattice="16.2900001489832 0.0 0.0 0.0 16.2900001489832 0.0 0.0 0.0 29.24716389574793" Properties=species:S:1:pos:R:3:initial_magmoms:R:1 pbc="T T T"
H       -0.75049660       0.86056813       0.99174208       0.00000000
Si      -1.54999351      -1.24212880      -1.20281886       0.00000000
Si       0.95915521      -1.66283435       1.39254521       0.00000000
Si       1.10252350       1.42622209      -1.59294678       0.00000000
Si       2.80378596      -0.17407494      -1.71385456       0.00000000
H       -1.01472040       3.07115373       0.94161244       0.00000000
Si      -3.26207253       0.32379633      -1.49558297       0.00000000
Si       0.03165147      -0.97766065       3.48763655       0.00000000
Si      -1.84555928      -3.29058003      -0.08873590       0.00000000
Si      -0.58652146      -2.18478224      -3.11976573       0.00000000
