10
Lattice="16.2900001489832 0.0 0.0 0.0 16.2900001489832 0.0 0.0 0.0 29.24716389574793" Properties=species:S:1:pos:R:3:initial_magmoms:R:1 pbc="T T T"
Si       2.29742759      -0.33270696       0.01359993       0.00000000
Si      -1.21231810       1.59250064       1.20504165       0.00000000
Si      -0.57702439       0.69903649      -2.19549685       0.00000000
Si      -0.94257199      -2.07340751       0.68590449       0.00000000
Si       2.35717931      -1.84551041      -1.80460851       0.00000000
Si      -3.06680430       1.89277421      -0.30259116       0.00000000
Si       0.21193290       2.99472105      -2.13241072       0.00000000
Si       0.24361695      -2.58160664      -2.62373383       0.00000000
Si      -2.87220396       0.60600430      -2.26607026       0.00000000
Si      -1.75751183      -3.01062009      -1.33320272       0.00000000
