10
Lattice="16.2900001489832 0.0 0.0 0.0 16.2900001489832 0.0 0.0 0.0 29.24716389574793" Properties=species:S:1:pos:R:3:initial_magmoms:R:1 pbc="T T T"
Si       1.47129652       1.26644977       1.28087954       0.00000000
Si      -1.34822557       1.34074846      -1.35531357       0.00000000
Si       1.44366868      -1.38095218      -1.26558328       0.00000000
Si      -1.25568208      -1.23782824       1.58668789       0.00000000
Si       0.71623873      -2.12928221       2.62335361       0.00000000
Si       2.42939288      -0.40179285       2.64523049       0.00000000
Si      -2.60312573       2.61322553       0.21148624       0.00000000
Si      -2.62433531      -2.65523744       0.23116958       0.00000000
Si       0.06442695      -2.71011845      -2.65151863       0.00000000
Si      -2.66566304      -0.03712491      -2.73314747       0.00000000
