10
Lattice="16.2900001489832 0.0 0.0 0.0 16.2900001489832 0.0 0.0 0.0 29.24716389574793" Properties=species:S:1:pos:R:3:initial_magmoms:R:1 pbc="T T T"
Si       0.68650948      -0.69656529       2.16472884       0.00000000
Si       0.29853054      -1.22247655      -2.01954591       0.00000000
Si       0.88394428       2.17264130      -0.47593910       0.00000000
Si      -2.47562390      -0.08963247       0.14559238       0.00000000
Si      -0.79490314       0.36591739      -3.34801059       0.00000000
Si       2.55666665      -0.64000153      -2.43748789       0.00000000
Si      -0.40990527       2.54885886      -2.50771033       0.00000000
Si      -0.52369092      -2.77994228       2.24252629       0.00000000
H       -2.24697746       0.28484206      -2.91600073       0.00000000
Si      -2.68615586      -1.91334685       1.68232611       0.00000000
