10
Lattice="16.2900001489832 0.0 0.0 0.0 16.2900001489832 0.0 0.0 0.0 29.24716389574793" Properties=species:S:1:pos:R:3:initial_magmoms:R:1 pbc="T T T"
Si      -1.61707573      -1.06189624       1.33992957       0.00000000
Si       1.11145042       1.69448582       1.22115683       0.00000000
Si      -0.95446369       1.21850830      -1.84116746       0.00000000
Si       1.74716768      -1.69463243      -0.10488033       0.00000000
Si       2.50934420       0.35916192       2.59803227       0.00000000
Si      -0.28740447      -2.36895698       2.78900253       0.00000000
Si       1.73721449       3.29160630      -0.47974123       0.00000000
Si      -2.65608452      -2.75618658       0.07235748       0.00000000
Si      -1.67283641       3.36660546      -0.87083430       0.00000000
Si       0.97704163      -3.54752709       1.23490300       0.00000000
