10
Lattice="16.2900001489832 0.0 0.0 0.0 16.2900001489832 0.0 0.0 0.0 29.24716389574793" Properties=species:S:1:pos:R:3:initial_magmoms:R:1 pbc="T T T"
Si       0.47315934      -0.11321550       2.25589225       0.00000000
Si       1.85852612       0.86229487      -1.15075891       0.00000000
Si      -0.83921194      -1.90255799      -1.11955219       0.00000000
Si      -1.77174929       1.67400929       0.00573244       0.00000000
Si       0.55513063       2.23666589      -2.53581685       0.00000000
Si      -2.25616502      -0.63213834      -2.51180493       0.00000000
Si      -0.15806187       2.12705048       2.75350349       0.00000000
Si      -1.22188033      -1.52602115       3.14252002       0.00000000
Si      -0.81611272       3.51925905      -1.11975692       0.00000000
Si      -3.57169656       0.66683116      -1.06766772       0.00000000
