10
Lattice="16.2900001489832 0.0 0.0 0.0 16.2900001489832 0.0 0.0 0.0 29.24716389574793" Properties=species:S:1:pos:R:3:initial_magmoms:R:1 pbc="T T T"
Si      -2.29517957      -0.09303219      -0.07057341       0.00000000
Si       0.57702439      -0.69903649       2.19549685       0.00000000
Si       0.19986201      -1.47810574      -1.87667352       0.00000000
Si       0.78895729       2.29568456       0.06308613       0.00000000
Si      -2.48977991       1.19373773       1.89290569       0.00000000
Si       0.82064134      -3.28064313      -0.42823697       0.00000000
Si       3.09048996       1.71680312       0.02679040       0.00000000
Si      -0.63529372       0.89346415       3.40053850       0.00000000
Si       1.45567441      -0.06983523      -3.28229222       0.00000000
Si       2.87445198      -1.03174345       2.20909678       0.00000000
