10
Lattice="16.2900001489832 0.0 0.0 0.0 16.2900001489832 0.0 0.0 0.0 29.24716389574793" Properties=species:S:1:pos:R:3:initial_magmoms:R:1 pbc="T T T"
Si      -1.30339549       1.37437102      -1.38505794       0.00000000
Si      -1.85852612      -0.86229487       1.15075891       0.00000000
Si       1.29738448       1.31730715       1.45683048       0.00000000
Si       1.38605095      -1.41155132      -1.28090879       0.00000000
Si      -0.23444568       2.49258179       2.81404512       0.00000000
Si      -2.67463883       2.65696418       0.03100199       0.00000000
Si      -2.72577314      -0.05857884      -2.63709978       0.00000000
Si       2.77658166      -0.03062520      -2.58796454       0.00000000
Si      -1.38536677      -0.97551037       3.40665116       0.00000000
Si       0.04370607      -2.79252957      -2.62072137       0.00000000
