10
Lattice="16.2900001489832 0.0 0.0 0.0 16.2900001489832 0.0 0.0 0.0 29.24716389574793" Properties=species:S:1:pos:R:3:initial_magmoms:R:1 pbc="T T T"
H       -0.83261449       0.31097610      -1.21875857       0.00000000
Si       1.72499699       1.57174066      -0.34783652       0.00000000
Si       1.10148094      -1.97977259      -0.71965571       0.00000000
Si      -1.76282237      -0.11549610       1.66910640       0.00000000
Si       1.80369723      -1.11871576      -2.88409208       0.00000000
Si       2.14754819       1.27076662      -2.63806494       0.00000000
Si      -0.66955159      -3.52217496      -0.74124012       0.00000000
Si      -2.76648186      -2.36929907      -0.59962535       0.00000000
Si      -3.60409737       0.93279799       0.57499924       0.00000000
Si      -3.62441100      -0.30507912      -1.49751329       0.00000000
