10
Lattice="16.2900001489832 0.0 0.0 0.0 16.2900001489832 0.0 0.0 0.0 29.24716389574793" Properties=species:S:1:pos:R:3:initial_magmoms:R:1 pbc="T T T"
Si      -1.37458279      -1.36461331       1.29170099       0.00000000
Si       1.35883036      -1.40667409      -1.29766741       0.00000000
Si      -1.40926420       1.31386996      -1.35665894       0.00000000
Si       1.32854725       1.31188258       1.46531216       0.00000000
Si       2.69084738       0.00355122      -2.63389722       0.00000000
Si       2.68001453       2.66802509       0.07762197       0.00000000
Si      -2.71746524       2.64583811       0.07548693       0.00000000
Si      -0.06540435      -2.75069685      -2.62690714       0.00000000
Si      -0.07161084       2.70782156      -2.69938746       0.00000000
Si      -0.07118730      -2.73898434       2.67675893       0.00000000
