10
Lattice="16.2900001489832 0.0 0.0 0.0 16.2900001489832 0.0 0.0 0.0 29.24716389574793" Properties=species:S:1:pos:R:3:initial_magmoms:R:1 pbc="T T T"
Si       0.59680045       2.09220617       0.91929686       0.00000000
Si      -1.70049683       0.55899136      -1.59695364       0.00000000
Si       2.20952675      -0.59974894      -0.73433779       0.00000000
Si      -0.94284892      -1.58537539       1.56846691       0.00000000
H        1.98438266       2.42139449       0.32648609       0.00000000
H       -1.21826395       1.09128340       3.25322053       0.00000000
H       -3.08992144       0.30732714       2.05177629       0.00000000
Si       0.76923010      -3.15130053       1.86123102       0.00000000
Si      -2.63155178      -2.65168622       0.25067744       0.00000000
Si       3.42174711      -0.48294963       1.47110310       0.00000000
