10
Lattice="16.2900001489832 0.0 0.0 0.0 16.2900001489832 0.0 0.0 0.0 29.24716389574793" Properties=species:S:1:pos:R:3:initial_magmoms:R:1 pbc="T T T"
Si       0.77162473       1.29471292      -1.84894721       0.00000000
Si      -0.28017171      -2.08288829      -1.14046391       0.00000000
Si      -2.20952675       0.59974894       0.73433779       0.00000000
Si       1.21222036       0.11679930       2.20544089       0.00000000
H       -0.22514409       3.02114343       1.06082388       0.00000000
Si      -1.61272630       2.69195510       1.65363465       0.00000000
Si      -0.47682459      -3.49420503       0.67862194       0.00000000
Si       1.82224829       3.11244888      -0.71725745       0.00000000
Si      -2.00691173      -1.74356759      -2.71317165       0.00000000
Si      -1.24307362       1.92958310      -3.09124974       0.00000000
