10
Lattice="16.2900001489832 0.0 0.0 0.0 16.2900001489832 0.0 0.0 0.0 29.24716389574793" Properties=species:S:1:pos:R:3:initial_magmoms:R:1 pbc="T T T"
Si      -1.32343219       1.33015996       1.40887683       0.00000000
Si       1.31518945       1.35291709      -1.42558866       0.00000000
Si       1.45383364      -1.33459084       1.32721582       0.00000000
Si      -1.26491851      -1.40282965      -1.44600318       0.00000000
Si       2.01445400      -0.55306180      -2.74095061       0.00000000
Si       0.47930067      -2.43548534      -2.72088705       0.00000000
Si      -2.70324407       2.63811665       0.00837346       0.00000000
Si       0.07763814      -2.68926725       2.69913886       0.00000000
Si      -2.72222192      -2.70171281      -0.07693466       0.00000000
Si       0.07529238       2.67346595       2.76032393       0.00000000
