10
Lattice="16.2900001489832 0.0 0.0 0.0 16.2900001489832 0.0 0.0 0.0 29.24716389574793" Properties=species:S:1:pos:R:3:initial_magmoms:R:1 pbc="T T T"
Si      -0.52373979      -0.52979967       2.21313289       0.00000000
Si       1.66509866       1.63895320       0.00380213       0.00000000
Si      -1.89806846       1.14145660      -0.95737666       0.00000000
Si       1.14137515      -1.96727816      -0.86706142       0.00000000
Si       2.73313622       1.08382258      -2.02314332       0.00000000
Si       1.46430811      -1.69543064       2.81898789       0.00000000
Si       0.62120287       3.76294116      -0.21920749       0.00000000
Si      -0.48861855      -3.08299656      -2.21626234       0.00000000
Si      -1.04466142       3.17280333      -1.91922814       0.00000000
Si      -2.25986122      -2.20802807       2.23685234       0.00000000
