10
Lattice="16.2900001489832 0.0 0.0 0.0 16.2900001489832 0.0 0.0 0.0 29.24716389574793" Properties=species:S:1:pos:R:3:initial_magmoms:R:1 pbc="T T T"
Si       0.83261449      -0.31097610       1.21875857       0.00000000
Si      -2.79179652      -0.61605523      -0.27875472       0.00000000
Si       2.55761147       1.26076456       0.87092205       0.00000000
Si       1.93409543      -2.29074869       0.49910285       0.00000000
H       -0.93900448       0.64205407      -2.82498356       0.00000000
Si      -0.93020788      -0.42647220       2.88786496       0.00000000
Si      -2.15925581       0.99878878      -2.00267030       0.00000000
Si      -2.77148289       0.62182189       1.79375781       0.00000000
Si      -1.93386737      -2.68027517       0.61913321       0.00000000
Si       2.63631172      -1.42969186      -1.66533351       0.00000000
