10
Lattice="16.2900001489832 0.0 0.0 0.0 16.2900001489832 0.0 0.0 0.0 29.24716389574793" Properties=species:S:1:pos:R:3:initial_magmoms:R:1 pbc="T T T"
Si      -0.00148239       0.55925200       2.23360591       0.00000000
Si       1.38904831       1.33219621      -1.26754284       0.00000000
Si      -1.38727270      -1.47439162      -1.12051734       0.00000000
Si       2.22827654      -0.08923662       2.77663800       0.00000000
Si      -2.68306076      -0.10085139      -2.56825196       0.00000000
Si      -0.01809819       2.64361616      -2.62531317       0.00000000
Si       2.76278403      -0.12220758      -2.51136622       0.00000000
Si       0.03323160      -2.80880328      -2.46626710       0.00000000
Si       2.65944026       2.65069416       0.20856153       0.00000000
Si      -1.36559071      -0.84848095       3.47792649       0.00000000
