10
Lattice="16.2900001489832 0.0 0.0 0.0 16.2900001489832 0.0 0.0 0.0 29.24716389574793" Properties=species:S:1:pos:R:3:initial_magmoms:R:1 pbc="T T T"
H       -1.24072786       0.76225798      -0.84468734       0.00000000
Si       1.51780447       1.85381831      -0.05864056       0.00000000
Si      -0.81358777      -0.78001408       2.15197707       0.00000000
Si       0.68841541      -1.61142310      -1.69387874       0.00000000
Si      -1.48014199       1.02729628      -2.52125176       0.00000000
H       -3.18893043      -0.17262513       0.05340532       0.00000000
Si       3.29923817       0.79092838      -1.24794724       0.00000000
Si       2.14809716      -0.32785254      -2.98862144       0.00000000
H        2.18515691      -1.71444107       2.47354964       0.00000000
Si       1.42775335      -3.41707188      -0.36339601       0.00000000
