10
Lattice="16.2900001489832 0.0 0.0 0.0 16.2900001489832 0.0 0.0 0.0 29.24716389574793" Properties=species:S:1:pos:R:3:initial_magmoms:R:1 pbc="T T T"
Si      -1.34728075       1.39958631       1.35089725       0.00000000
Si       1.33450939       1.39813650      -1.37164519       0.00000000
Si      -1.35734797      -1.36583669      -1.38715204       0.00000000
Si       1.38096847      -1.36230176       1.38084635       0.00000000
Si       2.68193187      -2.66564838      -0.11061277       0.00000000
Si       2.65716618       2.71544366       0.10034702       0.00000000
Si      -2.73781146       0.01866020       2.65795301       0.00000000
Si      -2.70440066      -2.73001017      -0.01047048       0.00000000
Si      -2.76125277       0.02488460      -2.67324927       0.00000000
Si      -2.69384474       2.76252176      -0.03556455       0.00000000
