10
Lattice="16.2900001489832 0.0 0.0 0.0 16.2900001489832 0.0 0.0 0.0 29.24716389574793" Properties=species:S:1:pos:R:3:initial_magmoms:R:1 pbc="T T T"
H       -1.45357300       0.46226133       0.00883264       0.00000000
Si       1.35091342       1.89136676      -0.05735369       0.00000000
Si       0.34725393      -0.36243621      -2.32608544       0.00000000
Si       0.38657799      -1.10397331       2.07514477       0.00000000
Si      -0.49036158       2.93966085      -1.15146084       0.00000000
Si      -1.92547802      -1.25058331       2.54912431       0.00000000
Si       1.10495071      -3.25207047       1.10481162       0.00000000
Si      -0.51067521       1.70178374      -3.22397337       0.00000000
Si       2.44418420      -1.51531210      -2.46770021       0.00000000
Si       1.52001991       2.83630080       2.10018034       0.00000000
