10
Lattice="16.2900001489832 0.0 0.0 0.0 16.2900001489832 0.0 0.0 0.0 29.24716389574793" Properties=species:S:1:pos:R:3:initial_magmoms:R:1 pbc="T T T"
Si       2.33797340      -0.09443313       0.33774625       0.00000000
Si      -0.95915521       1.66283435      -1.39254521       0.00000000
Si      -0.92750374       0.68517370       2.09509134       0.00000000
Si      -0.55534240      -2.17302086      -0.93389119       0.00000000
H       -1.70965181       2.52340247      -0.40080313       0.00000000
Si      -2.80471449      -1.62774568      -1.48128111       0.00000000
Si      -1.29134089      -1.42545646       3.03255068       0.00000000
Si      -2.50914872       0.42070554      -2.59536408       0.00000000
Si       1.25301052      -2.35869428      -2.50191939       0.00000000
Si       3.13069368       1.57527559      -1.12867730       0.00000000
