10
Lattice="16.2900001489832 0.0 0.0 0.0 16.2900001489832 0.0 0.0 0.0 29.24716389574793" Properties=species:S:1:pos:R:3:initial_magmoms:R:1 pbc="T T T"
Si      -1.26444610       1.17857011       1.55409953       0.00000000
Si      -1.82550629      -0.87087481      -1.20820034       0.00000000
Si       1.37210671      -1.57580355       1.20062533       0.00000000
Si       0.77012605       1.85289466      -1.33978333       0.00000000
H       -0.13971933      -2.80133757      -1.37736594       0.00000000
Si      -2.59411736       2.48563085       0.10502657       0.00000000
Si      -1.00325224      -0.61745779      -3.40375569       0.00000000
Si       0.97847515       0.75618669      -3.40156215       0.00000000
Si       0.20054619       2.52267431       2.78562858       0.00000000
Si       2.78222940      -0.21911190       2.59248323       0.00000000
