10
Lattice="16.2900001489832 0.0 0.0 0.0 16.2900001489832 0.0 0.0 0.0 29.24716389574793" Properties=species:S:1:pos:R:3:initial_magmoms:R:1 pbc="T T T"
Si       1.26444610      -1.17857011      -1.55409953       0.00000000
Si       1.46499229       1.34410420       1.23152905       0.00000000
Si      -1.31356045      -1.47250687       1.27059156       0.00000000
Si      -1.32967126       1.30706074      -1.44907296       0.00000000
Si      -0.56106019      -2.04944492      -2.76229987       0.00000000
Si       2.03457215       0.67432456      -2.89388286       0.00000000
Si      -2.36868005      -0.38722959      -2.71664505       0.00000000
Si       0.28740447       2.36895698      -2.78900253       0.00000000
Si       0.08586459       2.67535559       2.57204648       0.00000000
Si      -2.67038714      -0.07889247       2.57903656       0.00000000
