10
Lattice="16.2900001489832 0.0 0.0 0.0 16.2900001489832 0.0 0.0 0.0 29.24716389574793" Properties=species:S:1:pos:R:3:initial_magmoms:R:1 pbc="T T T"
Si       1.37912770      -1.33125139      -1.34051743       0.00000000
Si      -1.33201702      -1.41022531       1.33622980       0.00000000
Si       1.39160584       1.31158936       1.39042480       0.00000000
Si      -1.40123323       1.32743953      -1.38458706       0.00000000
Si      -0.08586459      -2.67535559      -2.57204648       0.00000000
Si      -2.69084738      -0.00355122       2.63389722       0.00000000
Si      -0.00070047       2.66181860      -2.70953565       0.00000000
Si      -0.01083285       2.66447387       2.71151919       0.00000000
Si       2.76333789       2.67160889       0.00850508       0.00000000
Si      -2.76245823       2.70427034      -0.06549025       0.00000000
