10
Lattice="16.2900001489832 0.0 0.0 0.0 16.2900001489832 0.0 0.0 0.0 29.24716389574793" Properties=species:S:1:pos:R:3:initial_magmoms:R:1 pbc="T T T"
Si       1.50662953       1.68283032      -0.51346321       0.00000000
Si      -2.29742759       0.33270696      -0.01359993       0.00000000
Si       1.24848190      -0.87395851       1.78688473       0.00000000
Si       0.05975172      -1.51280344      -1.81820844       0.00000000
H        2.50466897       0.80668081      -1.23999201       0.00000000
H       -0.46561707      -3.25083243       0.60430490       0.00000000
Si       0.21603798       2.74854657      -2.18230638       0.00000000
Si       1.58177530      -3.15952698      -1.17377643       0.00000000
Si      -3.23999958      -1.74070055       0.67230456       0.00000000
Si      -2.87445198       1.03174345      -2.20909678       0.00000000
