10
Lattice="16.2900001489832 0.0 0.0 0.0 16.2900001489832 0.0 0.0 0.0 29.24716389574793" Properties=species:S:1:pos:R:3:initial_magmoms:R:1 pbc="T T T"
Si      -1.41847946       1.32618846       1.32913736       0.00000000
Si      -1.39479380      -1.29140279      -1.40626213       0.00000000
Si       0.80254803      -1.30827923       1.81288545       0.00000000
Si       1.57107766       1.30551645      -1.29719946       0.00000000
Si       0.12792700      -2.61364582      -2.66225234       0.00000000
Si      -2.48356854      -0.20876450       2.84820581       0.00000000
Si       3.09772761      -1.21524704       1.88345886       0.00000000
Si       0.60794769      -0.02150932       3.77636456       0.00000000
Si      -0.20016501       2.18048494       3.15591522       0.00000000
Si      -2.63612439       0.17442192      -2.79129083       0.00000000
