10
Lattice="16.2900001489832 0.0 0.0 0.0 16.2900001489832 0.0 0.0 0.0 29.24716389574793" Properties=species:S:1:pos:R:3:initial_magmoms:R:1 pbc="T T T"
Si       1.45207432       0.08107533      -0.43200986       0.00000000
H       -0.52593894      -2.15638877       0.48287068       0.00000000
Si      -1.52397838      -1.28023926       1.20939947       0.00000000
H       -2.06465978       1.06824934      -0.71412800       0.00000000
Si      -2.81456994      -0.21452301      -0.45944370       0.00000000
Si       1.83707219       2.26401680       0.40829041       0.00000000
Si       2.54550800      -1.50731860       0.89645482       0.00000000
Si      -0.22864644      -0.37447452       3.06159312       0.00000000
Si       1.48465432      -0.39901867      -2.73004727       0.00000000
Si      -0.79786792      -0.11269422      -3.30729854       0.00000000
