10
Lattice="16.2900001489832 0.0 0.0 0.0 16.2900001489832 0.0 0.0 0.0 29.24716389574793" Properties=species:S:1:pos:R:3:initial_magmoms:R:1 pbc="T T T"
Si       1.42402131       0.76163896      -1.72742524       0.00000000
Si      -2.27916813       0.47429964      -0.48526894       0.00000000
Si       0.46542485       1.36831114       1.91931588       0.00000000
Si       1.27052064      -2.05644962       0.24971229       0.00000000
H       -2.52754176       1.50115609       0.60866273       0.00000000
Si       1.73910250       2.96472138       0.81953478       0.00000000
Si       3.14202989       1.61824861      -0.45251212       0.00000000
Si       2.95477634      -1.40512654       1.88755346       0.00000000
Si       1.57641427      -0.90780913      -3.32704038       0.00000000
Si       1.78046281       0.00891063       3.35090852       0.00000000
