10
Lattice="16.2900001489832 0.0 0.0 0.0 16.2900001489832 0.0 0.0 0.0 29.24716389574793" Properties=species:S:1:pos:R:3:initial_magmoms:R:1 pbc="T T T"
Si       0.75049660      -0.86056813      -0.99174208       0.00000000
H       -0.26422380       2.21058560      -0.05012964       0.00000000
Si       1.70965181      -2.52340247       0.40080313       0.00000000
Si      -3.00003159       0.68403340      -0.41747402       0.00000000
Si      -0.79949692      -2.10269693      -2.19456094       0.00000000
Si       0.78214807      -1.83822878       2.49589447       0.00000000
Si       1.85302010       0.56565397      -2.58468886       0.00000000
H        1.20726820       1.63170415       2.71442928       0.00000000
Si      -2.83327086       0.55557046       2.02320181       0.00000000
Si      -0.69972067       3.38716344      -0.83755103       0.00000000
