10
Lattice="16.2900001489832 0.0 0.0 0.0 16.2900001489832 0.0 0.0 0.0 29.24716389574793" Properties=species:S:1:pos:R:3:initial_magmoms:R:1 pbc="T T T"
Si       0.93786418      -1.61647300       1.41035147       0.00000000
Si      -1.74421919       1.03265569       1.27488387       0.00000000
Si       1.53515332       1.88242355      -0.02006355       0.00000000
Si      -0.53273187      -1.21808476      -2.11199620       0.00000000
Si       0.60071005       2.72218934      -2.08696063       0.00000000
Si      -2.84478789      -1.36469476      -1.63801666       0.00000000
Si       2.87731902      -1.29308392      -1.72090312       0.00000000
Si       2.37374624      -0.27808659       2.70377454       0.00000000
Si       2.25155495      -2.89020441      -0.02000506       0.00000000
Si      -0.47930067       2.43548534       2.72088705       0.00000000
