10
Lattice="16.2900001489832 0.0 0.0 0.0 16.2900001489832 0.0 0.0 0.0 29.24716389574793" Properties=species:S:1:pos:R:3:initial_magmoms:R:1 pbc="T T T"
Si       1.46631178       1.16840352       1.35195015       0.00000000
Si      -1.27367764      -1.59641024       1.09978110       0.00000000
Si       1.40292739      -1.34647277      -1.27204690       0.00000000
Si      -0.95984590       1.28080289      -1.76240485       0.00000000
Si      -0.31508118      -2.20308243      -2.54696002       0.00000000
Si       0.77454064       2.95930007      -1.52734539       0.00000000
Si      -1.73910250      -2.96472138      -0.81953478       0.00000000
Si      -0.04460202       2.61810602       2.42619848       0.00000000
Si       2.67836924       2.39366240      -0.20239037       0.00000000
Si      -2.75481822      -0.23803127       2.36711921       0.00000000
