10
Lattice="16.2900001489832 0.0 0.0 0.0 16.2900001489832 0.0 0.0 0.0 29.24716389574793" Properties=species:S:1:pos:R:3:initial_magmoms:R:1 pbc="T T T"
Si      -0.91044811      -1.74912248      -1.26084524       0.00000000
Si      -0.34725393       0.36243621       2.32608544       0.00000000
Si       2.09693027      -1.15287589      -0.14161477       0.00000000
Si      -0.85792915       2.06421995      -0.89788793       0.00000000
H       -1.80082694       0.82469755       2.33491808       0.00000000
Si       1.26143245      -2.12136527      -2.16543077       0.00000000
Si       1.00365949       2.25380297       2.26873175       0.00000000
H        1.93386737       2.68027517      -0.61913321       0.00000000
Si      -0.83761552       3.30209706       1.17462460       0.00000000
Si       2.76648186       2.36929907       0.59962535       0.00000000
