10
Lattice="16.2900001489832 0.0 0.0 0.0 16.2900001489832 0.0 0.0 0.0 29.24716389574793" Properties=species:S:1:pos:R:3:initial_magmoms:R:1 pbc="T T T"
Si      -0.74991016      -1.28277235       0.25468430       0.00000000
H        2.06465978      -1.06824934       0.71412800       0.00000000
Si       0.63557065       1.05932242      -2.09555929       0.00000000
Si       0.24275358       2.64420911      -0.35108296       0.00000000
Si       0.54068139      -2.34848860       1.92352748       0.00000000
Si       1.26679186      -1.18094356      -2.59317054       0.00000000
Si      -0.42824781      -2.59374921      -1.70654277       0.00000000
Si      -3.05144283      -0.70389091       0.29098003       0.00000000
Si      -1.66387691       1.37160172      -2.72411009       0.00000000
Si       2.02512395       2.69693984       1.15681307       0.00000000
