10
Lattice="16.2900001489832 0.0 0.0 0.0 16.2900001489832 0.0 0.0 0.0 29.24716389574793" Properties=species:S:1:pos:R:3:initial_magmoms:R:1 pbc="T T T"
Si       1.31274106       1.34586352       1.40145683       0.00000000
Si      -1.32815629       1.32859612      -1.42461765       0.00000000
Si       1.35211725      -1.41240817      -1.32989779       0.00000000
Si      -1.37173204      -1.36001953       1.38191972       0.00000000
Si       2.59152725       2.64688067      -0.12294923       0.00000000
Si       2.60646518      -2.77465944       0.11189672       0.00000000
Si      -0.05245380      -2.61884558      -2.77152182       0.00000000
Si      -2.76333789      -2.67160889      -0.00850508       0.00000000
Si      -2.72736957       2.70757721      -0.08028931       0.00000000
Si       2.62930376      -0.01454697       2.82526726       0.00000000
