10
Lattice="16.2900001489832 0.0 0.0 0.0 16.2900001489832 0.0 0.0 0.0 29.24716389574793" Properties=species:S:1:pos:R:3:initial_magmoms:R:1 pbc="T T T"
Si      -1.40457105      -1.20643741      -1.44162403       0.00000000
Si       1.25434793      -1.36225126       1.44179451       0.00000000
Si      -1.35211725       1.41240817       1.32989779       0.00000000
Si       1.82057205       0.82746685      -1.27869800       0.00000000
Si       2.54607978      -2.62524755      -0.06375297       0.00000000
Si      -2.73632744      -2.59045211      -0.01912472       0.00000000
Si       2.62124184       0.05220945       2.75296827       0.00000000
Si       2.68899195       2.68975595      -0.09256727       0.00000000
Si      -2.68027355       2.74100430      -0.09471986       0.00000000
Si      -2.72384930       0.05238864       2.71181751       0.00000000
