10
Lattice="16.2900001489832 0.0 0.0 0.0 16.2900001489832 0.0 0.0 0.0 29.24716389574793" Properties=species:S:1:pos:R:3:initial_magmoms:R:1 pbc="T T T"
H       -0.99706204       1.17315694       0.66534373       0.00000000
Si       1.15665517       1.39191535      -1.45276512       0.00000000
Si       1.69575644      -0.24526224       1.69241639       0.00000000
Si      -1.50654808      -1.46854351      -1.18898495       0.00000000
Si      -2.08204121       1.84371851       1.79633156       0.00000000
Si       2.43931349      -0.07568334      -2.80000648       0.00000000
Si       2.57222360       2.72429075      -0.11175341       0.00000000
Si       2.17717481      -2.56166768       1.72795169       0.00000000
Si       0.62771887       0.30986838       3.71936183       0.00000000
Si      -0.29691783       2.68848533      -2.72533847       0.00000000
