10
Lattice="16.2900001489832 0.0 0.0 0.0 16.2900001489832 0.0 0.0 0.0 29.24716389574793" Properties=species:S:1:pos:R:3:initial_magmoms:R:1 pbc="T T T"
Si      -1.46631178      -1.16840352      -1.35195015       0.00000000
Si       1.21205746       1.22525888      -1.55434053       0.00000000
Si      -1.51091380       1.44970250       1.07424833       0.00000000
Si       1.38284182      -1.53488617       1.14979375       0.00000000
Si      -0.69177115       1.79089655      -2.87929554       0.00000000
Si      -0.06338439      -2.51487629      -2.62399705       0.00000000
Si      -0.11028330       2.65724763       2.55554406       0.00000000
Si      -2.81100731      -0.04974314       2.40702697       0.00000000
Si       2.69232977      -0.16336915       2.55334468       0.00000000
H        3.17449749       2.02656398       0.36950867       0.00000000
