10
Lattice="16.2900001489832 0.0 0.0 0.0 16.2900001489832 0.0 0.0 0.0 29.24716389574793" Properties=species:S:1:pos:R:3:initial_magmoms:R:1 pbc="T T T"
Si      -1.17841861      -1.33537276       1.58471955       0.00000000
Si       1.07003961      -1.06352524      -1.85500137       0.00000000
Si       1.34872893       1.35395965       1.48398940       0.00000000
Si      -2.01701153       0.82513738      -1.13911854       0.00000000
Si       2.22332438       0.74155339      -2.86163026       0.00000000
Si      -0.67484584      -2.35037009      -2.83995811       0.00000000
Si      -2.61430067      -2.67375917       0.29129649       0.00000000
Si      -2.71627607       2.73111626       0.17624341       0.00000000
Si      -3.55216485      -1.05728617      -1.11905498       0.00000000
Si      -2.57763188       0.04360833       2.92904789       0.00000000
