10
Lattice="16.2900001489832 0.0 0.0 0.0 16.2900001489832 0.0 0.0 0.0 29.24716389574793" Properties=species:S:1:pos:R:3:initial_magmoms:R:1 pbc="T T T"
Si       1.37522951       1.38346084       1.34468223       0.00000000
Si      -1.35622396       1.35040843      -1.39938613       0.00000000
Si       1.29379905      -1.37860642      -1.43334208       0.00000000
Si      -1.31408173      -1.34592868       1.44619914       0.00000000
Si      -2.63256176      -2.68895774       0.01171641       0.00000000
Si      -2.66405033       2.68327253       0.06814297       0.00000000
Si       2.67833666       0.07434756      -2.67776550       0.00000000
Si       2.71039538      -0.01071882       2.70920866       0.00000000
Si       2.68633505      -2.74965429      -0.03094350       0.00000000
Si       2.68312592       2.79851093      -0.04288219       0.00000000
