10
Lattice="16.2900001489832 0.0 0.0 0.0 16.2900001489832 0.0 0.0 0.0 29.24716389574793" Properties=species:S:1:pos:R:3:initial_magmoms:R:1 pbc="T T T"
Si       1.17431353      -1.41403717      -1.46335506       0.00000000
Si       1.40732569       1.30315114       1.36245328       0.00000000
Si      -1.38453761      -1.45295398       1.24442342       0.00000000
Si      -1.31503795       1.35940051      -1.43159264       0.00000000
Si      -0.50994216      -2.06536025      -3.10119623       0.00000000
Si      -2.67833666      -0.07434756       2.67776550       0.00000000
Si       0.00478926       2.72416337       2.63488331       0.00000000
Si       2.58704750      -0.08573427      -2.77424219       0.00000000
Si      -1.78046281      -0.00891063      -3.35090852       0.00000000
Si       2.80779330       2.58932810      -0.02962983       0.00000000
