10
Lattice="16.2900001489832 0.0 0.0 0.0 16.2900001489832 0.0 0.0 0.0 29.24716389574793" Properties=species:S:1:pos:R:3:initial_magmoms:R:1 pbc="T T T"
Si       1.31743747       1.37787337       1.37783389       0.00000000
Si      -1.33516588       1.39417966      -1.36452643       0.00000000
Si      -1.28551885      -1.31650894       1.48856365       0.00000000
Si       1.36925596      -1.37464795      -1.36283010       0.00000000
Si      -2.63612927       2.69752628       0.12693269       0.00000000
Si       2.66782961       2.69107544      -0.04343204       0.00000000
Si      -2.68315850      -2.69260670       0.15623835       0.00000000
Si       2.66566304       0.03712491       2.73314747       0.00000000
Si       2.73009000      -2.67299354       0.08162883       0.00000000
Si      -2.71039538       0.01071882      -2.70920866       0.00000000
