10
Lattice="16.2900001489832 0.0 0.0 0.0 16.2900001489832 0.0 0.0 0.0 29.24716389574793" Properties=species:S:1:pos:R:3:initial_magmoms:R:1 pbc="T T T"
H        1.08260083       0.32166234      -1.02543481       0.00000000
Si      -1.70126246       1.60029703       0.12090778       0.00000000
Si       1.28606293       0.08651619       1.97772247       0.00000000
Si      -0.97230124      -2.01883601      -0.88539939       0.00000000
Si      -2.80378596       0.17407494       1.71385456       0.00000000
Si       0.31806225      -1.80626780      -2.90819174       0.00000000
Si       3.45794349      -0.28572660       1.07313694       0.00000000
H        3.03080340       1.25654545      -1.92352748       0.00000000
Si       0.49334265      -1.58319253       3.44414602       0.00000000
Si      -0.75782710       3.61737372       1.16146337       0.00000000
