10
Lattice="10.86 0.0 0.0 0.0 10.86 0.0 0.0 0.0 10.86" Properties=species:S:1:pos:R:3:initial_magmoms:R:1 pbc="T T T"
Si       1.34750880       1.15991316       1.35970458       0.00000000
Si       1.34750880      -1.55508684      -1.35529542       0.00000000
Si      -1.36749120      -1.55508684       1.35970458       0.00000000
Si       0.00647256       2.55140496      -2.31489588       0.00000000
Si       2.70500880       2.51741316       0.00220458       0.00000000
Si       0.03604434       2.37523404       2.83674060       0.00000000
Si       2.70500880      -0.19758684      -2.71279542       0.00000000
Si       2.70500880      -0.19758684       2.71720458       0.00000000
Si      -2.78130030      -0.05194338      -2.73235428       0.00000000
Si      -2.75826624      -0.02757354       2.78857650       0.00000000
