10
Lattice="10.86 0.0 0.0 0.0 10.86 0.0 0.0 0.0 10.86" Properties=species:S:1:pos:R:3:initial_magmoms:R:1 pbc="T T T"
Si       1.16468070      -1.20907638      -1.40246040       0.00000000
Si      -1.51239618       1.40786868      -1.16616852       0.00000000
Si       1.20260382       1.40786868       1.54883148       0.00000000
Si      -1.51239618      -1.30713132       1.54883148       0.00000000
Si       0.11854776       2.47795878      -2.49076272       0.00000000
Si       2.52682878      -2.49461802       0.26270340       0.00000000
Si       2.39121996       2.73673086       0.14097366       0.00000000
Si      -2.86989618       0.05036868      -2.52366852       0.00000000
Si      -0.38911380      -2.88728304      -2.52562332       0.00000000
Si       2.56010382       0.05036868       2.90633148       0.00000000
