10
Lattice="10.86 0.0 0.0 0.0 10.86 0.0 0.0 0.0 10.86" Properties=species:S:1:pos:R:3:initial_magmoms:R:1 pbc="T T T"
Si      -1.18861614       1.38613782      -1.30714218       0.00000000
Si      -1.18861614      -1.32886218       1.40785782       0.00000000
Si       1.52638386       1.38613782       1.40785782       0.00000000
Si      -2.27267220      -0.25877208      -2.63173638       0.00000000
Si      -2.39121996      -2.73673086      -0.14097366       0.00000000
Si      -2.54611614       2.74363782       0.05035782       0.00000000
Si      -2.54611614       0.02863782       2.76535782       0.00000000
Si       0.16888386       2.74363782      -2.66464218       0.00000000
Si       0.16888386      -2.68636218       2.76535782       0.00000000
Si       0.16888386       2.74363782       2.76535782       0.00000000
