10
Lattice="10.86 0.0 0.0 0.0 10.86 0.0 0.0 0.0 10.86" Properties=species:S:1:pos:R:3:initial_magmoms:R:1 pbc="T T T"
Si      -1.30119090       1.21185654      -1.33794114       0.00000000
Si      -1.30119090      -1.50314346       1.37705886       0.00000000
Si       1.41380910      -1.50314346      -1.33794114       0.00000000
Si      -2.61458844       2.50362096      -0.08957328       0.00000000
Si       0.05630910       2.56935654      -2.69544114       0.00000000
Si      -2.65869090      -0.14564346      -2.69544114       0.00000000
Si       2.78777286       2.60334834       0.41745840       0.00000000
Si       2.77130910      -0.14564346      -2.69544114       0.00000000
Si      -1.05571146       3.47811048       1.40141784       0.00000000
Si       2.78130030       0.05194338       2.73235428       0.00000000
