10
Lattice="10.86 0.0 0.0 0.0 10.86 0.0 0.0 0.0 10.86" Properties=species:S:1:pos:R:3:initial_magmoms:R:1 pbc="T T T"
Si      -1.19516472      -1.27881930       1.26557010       0.00000000
Si      -1.19516472       1.43618070      -1.44942990       0.00000000
Si       1.51983528      -1.27881930      -1.44942990       0.00000000
Si      -2.28494400       0.05936076       2.49084960       0.00000000
Si      -2.55266472      -2.63631930      -0.09192990       0.00000000
Si       0.16233528      -2.63631930       2.62307010       0.00000000
Si      -2.55266472       0.07868070      -2.80692990       0.00000000
Si       0.16233528      -2.63631930      -2.80692990       0.00000000
Si       2.87733528      -2.63631930      -0.09192990       0.00000000
Si       0.16233528       2.79368070      -2.80692990       0.00000000
