10
Lattice="10.86 0.0 0.0 0.0 10.86 0.0 0.0 0.0 10.86" Properties=species:S:1:pos:R:3:initial_magmoms:R:1 pbc="T T T"
Si      -1.35883578       1.19892228      -1.31792616       0.00000000
Si       1.35616422      -1.51607772      -1.31792616       0.00000000
Si      -1.35883578      -1.51607772       1.39707384       0.00000000
Si       1.74222636       1.53147720       1.19389410       0.00000000
Si      -0.03686970       2.37413718       2.58765564       0.00000000
Si       0.01042560       2.45099340      -2.68621014       0.00000000
Si       2.63446224      -0.20360328       2.56369848       0.00000000
Si       2.62899966      -0.13989852      -2.60386962       0.00000000
Si      -2.71633578       2.55642228       0.03957384       0.00000000
Si      -2.71633578      -0.15857772      -2.67542616       0.00000000
