10
Lattice="10.86 0.0 0.0 0.0 10.86 0.0 0.0 0.0 10.86" Properties=species:S:1:pos:R:3:initial_magmoms:R:1 pbc="T T T"
Si      -1.16396394       1.19857476      -1.48729872       0.00000000
Si      -1.16396394      -1.51642524       1.22770128       0.00000000
Si       1.55103606       1.19857476       1.22770128       0.00000000
Si       1.34397930      -1.53167268      -1.19166780       0.00000000
Si      -2.52146394       2.55607476      -0.12979872       0.00000000
Si      -2.52146394      -0.15892524       2.58520128       0.00000000
Si       0.19353606       2.55607476       2.58520128       0.00000000
Si       2.80587648      -0.17087124       2.50203540       0.00000000
Si      -2.52146394      -0.15892524      -2.84479872       0.00000000
Si      -2.52146394      -2.87392524      -0.12979872       0.00000000
