10
Lattice="10.86 0.0 0.0 0.0 10.86 0.0 0.0 0.0 10.86" Properties=species:S:1:pos:R:3:initial_magmoms:R:1 pbc="T T T"
Si       1.09443822       1.20945648       1.37546244       0.00000000
Si      -1.62056178       1.20945648      -1.33953756       0.00000000
Si       1.03461048      -1.03212354      -2.00700402       0.00000000
Si      -1.62056178      -1.50554352       1.37546244       0.00000000
Si       2.29741128       2.49898374       0.02573820       0.00000000
Si       2.45193822      -0.14804352       2.73296244       0.00000000
Si      -0.26306178       2.56695648       2.73296244       0.00000000
Si       0.75556278       0.96358608      -3.55804008       0.00000000
Si       2.49856020      -2.90081460       0.28985340       0.00000000
Si      -0.29825904       2.78148492      -2.68829526       0.00000000
