10
Lattice="10.86 0.0 0.0 0.0 10.86 0.0 0.0 0.0 10.86" Properties=species:S:1:pos:R:3:initial_magmoms:R:1 pbc="T T T"
Si       1.36316892      -1.11978546      -1.32738522       0.00000000
Si      -1.35183108      -1.11978546       1.38761478       0.00000000
Si       1.36316892       1.59521454       1.38761478       0.00000000
Si       0.20007378      -2.58160662      -2.46517656       0.00000000
Si      -2.66270910      -2.51505654       0.30200574       0.00000000
Si       2.72066892      -2.47728546       0.03011478       0.00000000
Si       0.00566892      -2.47728546       2.74511478       0.00000000
Si       2.72066892       0.23771454      -2.68488522       0.00000000
Si      -2.70933108       0.23771454       2.74511478       0.00000000
Si       2.72066892       0.23771454       2.74511478       0.00000000
