10
Lattice="10.86 0.0 0.0 0.0 10.86 0.0 0.0 0.0 10.86" Properties=species:S:1:pos:R:3:initial_magmoms:R:1 pbc="T T T"
Si       1.65674730       1.00194360      -1.14576258       0.00000000
Si      -1.05939300       0.93720714       1.84079172       0.00000000
Si      -1.01241264      -1.97571636      -1.02623742       0.00000000
Si      -2.30038692       2.34548850       0.18695490       0.00000000
Si      -2.30038692      -0.36951150      -2.52804510       0.00000000
Si       0.41461308       2.34548850      -2.52804510       0.00000000
Si      -2.30038692      -0.36951150       2.90195490       0.00000000
Si       0.41461308       2.34548850       2.90195490       0.00000000
Si      -2.30038692      -3.08451150       0.18695490       0.00000000
Si       3.12961308       2.34548850       0.18695490       0.00000000
