10
Lattice="10.86 0.0 0.0 0.0 10.86 0.0 0.0 0.0 10.86" Properties=species:S:1:pos:R:3:initial_magmoms:R:1 pbc="T T T"
Si      -1.57375518      -1.13300208       1.11569124       0.00000000
Si       1.14124482       1.58199792       1.11569124       0.00000000
Si       1.14124482      -1.13300208      -1.59930876       0.00000000
Si      -0.21625518      -2.49050208       2.47319124       0.00000000
Si       2.49874482       0.22449792       2.47319124       0.00000000
Si       2.49874482      -2.49050208      -0.24180876       0.00000000
Si      -2.90351874      -2.46794586      -0.37427904       0.00000000
Si      -2.93125518       0.22449792       2.47319124       0.00000000
Si      -0.21625518       2.93949792       2.47319124       0.00000000
Si       2.49874482       2.93949792      -0.24180876       0.00000000
