10
Lattice="10.86 0.0 0.0 0.0 10.86 0.0 0.0 0.0 10.86" Properties=species:S:1:pos:R:3:initial_magmoms:R:1 pbc="T T T"
Si      -1.34136204       1.34136204       1.28685570       0.00000000
Si      -1.34136204      -1.37363796      -1.42814430       0.00000000
Si       1.37363796       1.34136204      -1.42814430       0.00000000
Si       1.45532688      -1.45532688       1.31509170       0.00000000
Si      -2.69886204      -0.01613796       2.64435570       0.00000000
Si       0.01613796       2.69886204       2.64435570       0.00000000
Si      -2.69886204       2.69886204      -0.07064430       0.00000000
Si      -2.69886204      -2.73113796      -0.07064430       0.00000000
Si       2.73113796       2.69886204      -0.07064430       0.00000000
Si       0.01613796       2.69886204      -2.78564430       0.00000000
