10
Lattice="10.86 0.0 0.0 0.0 10.86 0.0 0.0 0.0 10.86" Properties=species:S:1:pos:R:3:initial_magmoms:R:1 pbc="T T T"
Si      -1.43529018      -1.21017324       1.26273564       0.00000000
Si       1.27970982       1.50482676       1.26273564       0.00000000
Si       1.25704500      -0.35546952      -1.95782994       0.00000000
Si      -1.43529018       1.50482676      -1.45226436       0.00000000
Si       2.48738526      -2.19764046      -0.20784954       0.00000000
Si       0.10325688      -2.14650072      -2.92786686       0.00000000
Si      -0.07779018      -2.56767324       2.62023564       0.00000000
Si       2.63720982       0.14732676       2.62023564       0.00000000
Si      -2.79279018      -2.56767324      -0.09476436       0.00000000
Si      -2.79279018       0.14732676       2.62023564       0.00000000
