10
Lattice="10.86 0.0 0.0 0.0 10.86 0.0 0.0 0.0 10.86" Properties=species:S:1:pos:R:3:initial_magmoms:R:1 pbc="T T T"
Si       1.16064078       1.41448242       1.16364900       0.00000000
Si       1.16064078      -1.30051758      -1.55135100       0.00000000
Si      -1.55435922       1.41448242      -1.55135100       0.00000000
Si      -0.23655252      -2.38470396       2.36213688       0.00000000
Si       2.51814078       0.05698242       2.52114900       0.00000000
Si       2.51814078      -2.65801758      -0.19385100       0.00000000
Si       2.51814078       2.77198242      -0.19385100       0.00000000
Si      -0.19685922       2.77198242       2.52114900       0.00000000
Si      -2.82853044       0.07527066       2.57147424       0.00000000
Si      -0.26792706      -2.75673498      -2.66800878       0.00000000
