10
Lattice="10.86 0.0 0.0 0.0 10.86 0.0 0.0 0.0 10.86" Properties=species:S:1:pos:R:3:initial_magmoms:R:1 pbc="T T T"
Si      -1.25032266       1.43148918       1.26224694       0.00000000
Si      -1.25032266      -1.28351082      -1.45275306       0.00000000
Si       1.46467734      -1.28351082       1.26224694       0.00000000
Si      -2.60782266       0.07398918       2.61974694       0.00000000
Si      -2.60782266      -2.64101082      -0.09525306       0.00000000
Si       0.10717734      -2.64101082       2.61974694       0.00000000
Si       0.09998802       2.61966006      -2.69792808       0.00000000
Si      -2.60782266       2.78898918      -0.09525306       0.00000000
Si       0.10717734       2.78898918       2.61974694       0.00000000
Si      -2.60782266       0.07398918      -2.81025306       0.00000000
