10
Lattice="10.86 0.0 0.0 0.0 10.86 0.0 0.0 0.0 10.86" Properties=species:S:1:pos:R:3:initial_magmoms:R:1 pbc="T T T"
Si      -1.27244448      -1.37935032       1.25131092       0.00000000
Si       1.44255552       1.33564968       1.25131092       0.00000000
Si       1.44255552      -1.37935032      -1.46368908       0.00000000
Si      -2.62994448      -0.02185032       2.60881092       0.00000000
Si       0.08505552       2.69314968       2.60881092       0.00000000
Si       0.08505552      -2.73685032       2.60881092       0.00000000
Si      -2.62994448      -2.73685032      -0.10618908       0.00000000
Si      -2.80531176       2.58179124       0.08314416       0.00000000
Si       2.80005552      -0.02185032       2.60881092       0.00000000
Si       2.80005552      -2.73685032      -0.10618908       0.00000000
