10
Lattice="10.86 0.0 0.0 0.0 10.86 0.0 0.0 0.0 10.86" Properties=species:S:1:pos:R:3:initial_magmoms:R:1 pbc="T T T"
Si      -1.25196252       1.14788028      -1.43635446       0.00000000
Si      -1.25196252      -1.56711972       1.27864554       0.00000000
Si       1.44755112       1.24236228       1.42234506       0.00000000
Si       1.46303748      -1.56711972      -1.43635446       0.00000000
Si       0.45236244      -0.99856614       2.69614704       0.00000000
Si      -2.60946252       2.50538028      -0.07885446       0.00000000
Si      -2.60946252      -0.20961972       2.63614554       0.00000000
Si       0.10553748       2.50538028      -2.79385446       0.00000000
Si       2.88876000       2.45153640      -0.12358680       0.00000000
Si       0.17618178       2.57010588       2.80519230       0.00000000
