10
Lattice="16.28999089631971 0.0 0.0 0.0 16.28999089631971 0.0 0.0 0.0 34.3005442915855" Properties=species:S:1:pos:R:3:initial_magmoms:R:1 pbc="T T T"
Si      -1.19567527      -1.35167904      -1.47214588       0.00000000
Si       0.94045591      -1.86540048       1.14951478       0.00000000
Si       1.39812346       1.34205165      -1.40316745       0.00000000
Si      -1.80712042       0.80839125       1.43263163       0.00000000
Si      -2.48022322      -2.61221553       0.09446375       0.00000000
Si       0.10315805       1.12873410       3.44182144       0.00000000
Si      -2.53753144       0.01943397      -2.81178869       0.00000000
Si      -2.56698376       2.78384697       0.17445267       0.00000000
Si       0.18510490      -2.70570710      -2.82993369       0.00000000
Si       2.72504170      -2.81880531      -0.09878562       0.00000000
