10
Lattice="16.28999089631971 0.0 0.0 0.0 16.28999089631971 0.0 0.0 0.0 34.3005442915855" Properties=species:S:1:pos:R:3:initial_magmoms:R:1 pbc="T T T"
Si       0.82969857       0.01242113       2.16824152       0.00000000
Si       1.83334176      -1.01432196      -1.10852561       0.00000000
Si      -2.02655745      -1.19101959       0.34561248       0.00000000
Si      -0.57489039       2.18031713      -0.85264341       0.00000000
Si       1.24331796      -0.11796566      -3.19228484       0.00000000
Si      -1.10104110       0.52322828       3.39246293       0.00000000
Si       1.71320301      -2.17096083       2.36433784       0.00000000
Si       0.67481325       2.14869824      -2.87267219       0.00000000
Si       3.86050194      -0.20832467      -0.21605925       0.00000000
Si      -2.90794419      -0.70564275       2.49443988       0.00000000
