10
Lattice="16.28999089631971 0.0 0.0 0.0 16.28999089631971 0.0 0.0 0.0 34.3005442915855" Properties=species:S:1:pos:R:3:initial_magmoms:R:1 pbc="T T T"
Si       2.22725025       0.87552234      -0.61422019       0.00000000
Si      -0.48597957       2.49232113       0.02651434       0.00000000
Si       0.04204449      -2.10868253      -1.64255108       0.00000000
Si      -0.30400398      -2.20787234       1.64642705       0.00000000
Si       2.72065806       0.26792163       1.60255663       0.00000000
Si       0.93610485      -0.68032904       3.04015296       0.00000000
Si       1.35777150       2.89963629      -1.36097776       0.00000000
Si      -2.46883095       0.96563862      -2.41359345       0.00000000
Si      -2.07050787      -2.80263653      -1.05357611       0.00000000
Si      -3.47198544      -0.91611376      -0.84513158       0.00000000
