10
Lattice="16.28999089631971 0.0 0.0 0.0 16.28999089631971 0.0 0.0 0.0 34.3005442915855" Properties=species:S:1:pos:R:3:initial_magmoms:R:1 pbc="T T T"
Si       0.64330839      -2.27136357      -0.17143422       0.00000000
Si       2.01694635       1.21064022       0.27718285       0.00000000
Si      -1.46896704      -0.62286444       1.81587183       0.00000000
Si      -0.25868520       0.48374784      -3.12560454       0.00000000
Si      -1.40791212      -2.51906931      -1.33940270       0.00000000
Si       2.73574260       0.65655216      -1.96549089       0.00000000
Si      -1.97600958       1.50014610       2.52877474       0.00000000
Si      -2.43463824       2.58346368       0.37562547       0.00000000
Si       1.17626832      -2.79723735       2.12100964       0.00000000
Si       3.67738605      -0.31493457       0.95801474       0.00000000
