10
Lattice="16.28999089631971 0.0 0.0 0.0 16.28999089631971 0.0 0.0 0.0 34.3005442915855" Properties=species:S:1:pos:R:3:initial_magmoms:R:1 pbc="T T T"
Si      -1.35635427       1.35783666      -1.36001734       0.00000000
Si       1.35738054      -1.35936792      -1.36025745       0.00000000
Si       1.35433431       1.36920708       1.37586420       0.00000000
Si      -1.36190916      -1.37577195       1.37452648       0.00000000
Si       2.71277370       2.71174743       0.00000000       0.00000000
Si      -2.71303434      -2.71503801      -0.00229814       0.00000000
Si      -2.71567332       2.71394658      -0.00428757       0.00000000
Si       0.00065160       2.71402803      -2.71766794       0.00000000
Si      -2.71469592      -0.00052128      -2.71746214       0.00000000
Si       2.71507059      -0.00104256      -2.71756504       0.00000000
