10
Lattice="16.28999089631971 0.0 0.0 0.0 16.28999089631971 0.0 0.0 0.0 34.3005442915855" Properties=species:S:1:pos:R:3:initial_magmoms:R:1 pbc="T T T"
Si      -1.95025509       1.25498160       0.02280987       0.00000000
Si       0.30020841      -0.77486643      -2.18048682       0.00000000
Si       1.80621891       1.18426671       1.05734917       0.00000000
Si      -1.17823941      -2.29957785       1.07998754       0.00000000
Si       1.35259128       0.01415601       3.14721390       0.00000000
Si      -3.38286611      -0.38998260      -0.82825571       0.00000000
Si      -2.04224472      -1.38895056      -2.52393836       0.00000000
Si       2.32134129      -1.83076794       1.96559379       0.00000000
Si       1.11555549       1.05902919      -3.32516522       0.00000000
Si       2.26909926      -2.13726429      -2.04434788       0.00000000
