10
Lattice="16.28999089631971 0.0 0.0 0.0 16.28999089631971 0.0 0.0 0.0 34.3005442915855" Properties=species:S:1:pos:R:3:initial_magmoms:R:1 pbc="T T T"
Si      -1.35653346      -1.35610992      -1.35850812       0.00000000
Si       1.35707103      -1.35759231       1.35765060       0.00000000
Si      -1.35770634       1.35781019       1.35730760       0.00000000
Si       1.35845568       1.35813094      -1.35734190       0.00000000
Si      -0.00073305       2.71429911       2.71372338       0.00000000
Si       2.71435383       2.71513479       0.00034301       0.00000000
Si       2.71469592      -2.71479366       0.00003430       0.00000000
Si      -2.71430496       0.00167787       2.71571281       0.00000000
Si      -2.71538824      -2.71476108      -0.00030871       0.00000000
Si      -0.00039096      -2.71635750       2.71403208       0.00000000
