10
Lattice="16.28999089631971 0.0 0.0 0.0 16.28999089631971 0.0 0.0 0.0 34.3005442915855" Properties=species:S:1:pos:R:3:initial_magmoms:R:1 pbc="T T T"
Si      -2.03190057       0.93103866       0.61343128       0.00000000
Si      -0.02059056      -2.30312907       0.35631425       0.00000000
Si      -0.39908871       0.15446178      -2.31223528       0.00000000
Si       1.69663608       1.35563422       0.96960833       0.00000000
Si       2.36794698       2.30263615      -1.03985588       0.00000000
Si      -3.43842804      -0.81728559      -0.12667198       0.00000000
Si      -2.18813796      -2.79857313      -0.39720052       0.00000000
Si      -1.09545363       2.42522166      -2.41681770       0.00000000
Si      -1.89589536       1.32678792       2.92336842       0.00000000
Si       1.48812408      -0.62540568      -3.40789818       0.00000000
