10
Lattice="16.28999089631971 0.0 0.0 0.0 16.28999089631971 0.0 0.0 0.0 34.3005442915855" Properties=species:S:1:pos:R:3:initial_magmoms:R:1 pbc="T T T"
Si      -0.45178686       1.44893034       1.75999621       0.00000000
Si      -1.86010623      -1.39948042      -0.34876813       0.00000000
Si       1.56947634      -1.52795802       0.90670109       0.00000000
Si       1.04961357       0.63241038      -2.05247712       0.00000000
Si       1.17069714      -1.62022621      -2.73306890       0.00000000
Si       1.29474549      -3.07713932      -0.85511305       0.00000000
Si       1.68459777       2.45436543       2.15448699       0.00000000
Si      -0.97660179      -3.58286237      -0.15267181       0.00000000
Si      -2.40966567       2.63544507       1.17774415       0.00000000
Si       2.96028396       1.87323597      -1.38708049       0.00000000
