10
Lattice="16.28999089631971 0.0 0.0 0.0 16.28999089631971 0.0 0.0 0.0 34.3005442915855" Properties=species:S:1:pos:R:3:initial_magmoms:R:1 pbc="T T T"
Si      -1.35128808      -1.35451350      -1.37620721       0.00000000
Si       1.35974259       1.36171368      -1.37270855       0.00000000
Si       1.27311237      -1.33672482       1.50445701       0.00000000
Si      -1.36339155       1.38223908       1.42652613       0.00000000
Si       2.70172908      -2.69948106      -0.00277835       0.00000000
Si      -2.69136864      -2.72362284       0.01248541       0.00000000
Si      -2.71352304       2.73153978       0.00150922       0.00000000
Si      -2.71047681       0.00296478      -2.73461242       0.00000000
Si       0.00609246      -2.71086777      -2.73509263       0.00000000
Si       0.00506619       2.71911051      -2.73492113       0.00000000
