10
Lattice="16.28999089631971 0.0 0.0 0.0 16.28999089631971 0.0 0.0 0.0 34.3005442915855" Properties=species:S:1:pos:R:3:initial_magmoms:R:1 pbc="T T T"
Si       1.70176743       0.89225217      -1.49629348       0.00000000
Si      -0.87532686      -1.78328259      -1.46226732       0.00000000
Si      -2.03888898       1.48159179      -0.06527397       0.00000000
Si       0.24421968       0.41694255       2.92240801       0.00000000
Si       2.01587121      -1.96063182       2.03584134       0.00000000
Si       0.35163594       2.24155287      -2.92131039       0.00000000
Si      -2.76956064      -1.63958850       1.90357837       0.00000000
Si      -0.08540847       2.73906576       2.55179042       0.00000000
Si      -2.36460753      -0.50342616      -2.92264811       0.00000000
Si      -2.12478615      -3.18500451       0.10568004       0.00000000
