10
Lattice="16.28999089631971 0.0 0.0 0.0 16.28999089631971 0.0 0.0 0.0 34.3005442915855" Properties=species:S:1:pos:R:3:initial_magmoms:R:1 pbc="T T T"
Si      -0.06799446       1.93626198       1.26894935       0.00000000
Si      -2.09282517      -0.78421689      -0.66481352       0.00000000
Si       1.51780446       0.85431276      -1.59168335       0.00000000
Si       0.83048049      -1.85034852       1.25934519       0.00000000
Si       2.20506327       1.60401114       2.24325685       0.00000000
Si       1.38603465      -0.86916924      -3.15455422       0.00000000
Si       2.26628109      -0.81083475       2.80962775       0.00000000
Si      -1.61025021      -2.95653726      -1.65843224       0.00000000
Si      -1.38579030       1.39246920       3.25989125       0.00000000
Si      -1.46838060       3.51735309      -0.36382608       0.00000000
