10
Lattice="16.28999089631971 0.0 0.0 0.0 16.28999089631971 0.0 0.0 0.0 34.3005442915855" Properties=species:S:1:pos:R:3:initial_magmoms:R:1 pbc="T T T"
Si      -0.83140902       1.78012233      -1.29594389       0.00000000
Si       1.22792391       1.48519188       1.38941091       0.00000000
Si      -1.49141466      -1.27092951       1.38392625       0.00000000
Si       1.24188444      -1.61745039      -1.36063475       0.00000000
Si       2.72000646       2.52424953      -0.27958389       0.00000000
Si       2.53485432       0.10055817       2.77266002       0.00000000
Si       1.15662258       2.93907438      -2.06983320       0.00000000
Si      -2.34567855      -2.97720927      -0.06836102       0.00000000
Si      -2.65903299       2.70332550       0.01114768       0.00000000
Si      -0.18217107      -2.62236420       2.78469952       0.00000000
