10
Lattice="16.28999089631971 0.0 0.0 0.0 16.28999089631971 0.0 0.0 0.0 34.3005442915855" Properties=species:S:1:pos:R:3:initial_magmoms:R:1 pbc="T T T"
Si      -0.62255493       2.33119674       0.05484660       0.00000000
Si       1.93702761      -0.66055950       1.29789902       0.00000000
Si       1.10267010      -1.19288412      -1.85518028       0.00000000
Si      -2.23249563      -0.68448951       0.82372803       0.00000000
Si      -2.13482079       1.86434163      -1.79134693       0.00000000
Si       3.29330043      -0.71588034      -0.93153470       0.00000000
Si      -1.90286748      -3.00661272       1.19434562       0.00000000
Si       1.37275830       3.57223410      -0.31988705       0.00000000
Si       2.76371253      -2.74711302       0.30575522       0.00000000
Si      -1.68749739       2.92517901       2.04170674       0.00000000
