10
Lattice="16.28999089631971 0.0 0.0 0.0 16.28999089631971 0.0 0.0 0.0 34.3005442915855" Properties=species:S:1:pos:R:3:initial_magmoms:R:1 pbc="T T T"
Si       0.32962815      -2.32212321       0.37061759       0.00000000
Si      -0.80446536       1.68788835       1.53217187       0.00000000
Si       2.23249563       0.68448951      -0.82372803       0.00000000
Si      -3.22695126      -1.19032659      -0.43033487       0.00000000
Si      -1.95348051      -1.25747397      -2.61706439       0.00000000
Si       1.60994070       3.01568625      -0.76888143       0.00000000
Si       0.09767484       2.54883114      -2.61507496       0.00000000
Si       0.08540847      -2.73906576      -2.55179042       0.00000000
Si      -1.80501345      -3.11125968       1.17808715       0.00000000
Si       1.98852030      -2.33383572       2.22116729       0.00000000
