10
Lattice="16.28999089631971 0.0 0.0 0.0 16.28999089631971 0.0 0.0 0.0 34.3005442915855" Properties=species:S:1:pos:R:3:initial_magmoms:R:1 pbc="T T T"
Si      -1.97325657      -0.42790572       1.20878616       0.00000000
Si       1.75601313       0.64187487       1.45221726       0.00000000
Si       0.84207897      -1.75619232      -1.35229971       0.00000000
Si      -0.47389239       1.97307738      -1.28116035       0.00000000
Si       2.79112860       2.24313300       0.02136925       0.00000000
Si       0.63083025       1.07030187       3.45794270       0.00000000
Si      -1.71711261      -2.59621875       2.03217118       0.00000000
Si      -1.75008357       0.95873166       3.14007938       0.00000000
Si      -3.81396141       0.05799240      -0.19815436       0.00000000
Si       1.35620766       3.32063505      -1.40419647       0.00000000
