10
Lattice="16.28999089631971 0.0 0.0 0.0 16.28999089631971 0.0 0.0 0.0 34.3005442915855" Properties=species:S:1:pos:R:3:initial_magmoms:R:1 pbc="T T T"
Si       1.60202376       1.04448222       1.41717378       0.00000000
Si      -1.06868916      -1.58413734       1.44422321       0.00000000
Si       1.13287176      -0.45074430      -2.17266629       0.00000000
Si      -1.57941324       2.03823738      -0.02356449       0.00000000
Si       0.24509934       2.45719989       2.83060396       0.00000000
Si      -2.47057398      -0.25220178       2.83520024       0.00000000
Si      -2.22974262      -3.08118834       0.05937428       0.00000000
Si       2.72003904       2.68084530       0.18815852       0.00000000
Si       1.58591295      -2.84543946      -2.02160661       0.00000000
Si      -0.52147548      -0.66277494      -3.85685826       0.00000000
