10
Lattice="16.28999089631971 0.0 0.0 0.0 16.28999089631971 0.0 0.0 0.0 34.3005442915855" Properties=species:S:1:pos:R:3:initial_magmoms:R:1 pbc="T T T"
Si       1.35591444       1.35741113      -1.35758200       0.00000000
Si       1.35348723      -1.35751086       1.36214398       0.00000000
Si      -1.35896067      -1.35817875      -1.35761630       0.00000000
Si      -1.36260963       1.35747859       1.36252128       0.00000000
Si       2.71269225       2.71415739      -0.00017150       0.00000000
Si       2.71360449      -0.00035838      -2.71447799       0.00000000
Si      -2.71575477      -2.71290402      -0.00096042       0.00000000
Si      -0.00140094       2.71410038      -2.71468379       0.00000000
Si      -0.00146610      -2.71536381      -2.71427219       0.00000000
Si       2.71451673      -2.71580364       0.00061741       0.00000000
