10
Lattice="16.28999089631971 0.0 0.0 0.0 16.28999089631971 0.0 0.0 0.0 34.3005442915855" Properties=species:S:1:pos:R:3:initial_magmoms:R:1 pbc="T T T"
Si       1.81335393       1.01947595      -1.06455229       0.00000000
Si      -0.96633909      -1.83593187      -1.08849408       0.00000000
Si       0.87594588      -1.15918011       1.87915637       0.00000000
Si      -1.82255778       1.61931138       0.19558181       0.00000000
Si       0.43033293       2.24285348      -2.47084109       0.00000000
Si      -2.29693887      -0.51012135      -2.47787270       0.00000000
Si      -1.11936735      -2.40021747       2.25389002       0.00000000
Si      -0.80760933       3.50802611      -0.89339248       0.00000000
Si      -2.63163321      -2.86707258       0.40769650       0.00000000
Si      -3.68279433       0.80752788      -1.12252024       0.00000000
