10
Lattice="16.28999089631971 0.0 0.0 0.0 16.28999089631971 0.0 0.0 0.0 34.3005442915855" Properties=species:S:1:pos:R:3:initial_magmoms:R:1 pbc="T T T"
Si       1.35830648       1.33618725       1.38071087       0.00000000
Si       1.22944444      -1.41749390      -1.42911583       0.00000000
Si      -1.35751086      -1.38229935       1.37632040       0.00000000
Si      -1.19200446       1.50905673      -1.54862928       0.00000000
Si      -2.28677391      -0.18938754      -2.76967244       0.00000000
Si      -0.66445281      -2.24576546      -2.75269366       0.00000000
Si       2.71748870       2.67110388       0.00012691       0.00000000
Si      -2.69970912       2.69276958      -0.00157440       0.00000000
Si       0.00305985       2.69058672       2.73657784       0.00000000
Si      -2.72251512      -2.72237610       0.02846947       0.00000000
