10
Lattice="16.28999089631971 0.0 0.0 0.0 16.28999089631971 0.0 0.0 0.0 34.3005442915855" Properties=species:S:1:pos:R:3:initial_magmoms:R:1 pbc="T T T"
Si       1.19567527       1.35167904       1.47214588       0.00000000
Si      -1.34185617       1.37111301      -1.33964281       0.00000000
Si       1.38078017      -1.35402806      -1.35778780       0.00000000
Si      -1.28454795      -1.26053649       1.56660963       0.00000000
Si       2.13613118      -0.51372144       2.62166067       0.00000000
Si      -0.61144515       2.16007029       2.90477752       0.00000000
Si      -2.65149072      -2.55496449       0.05042183       0.00000000
Si       2.59379873       2.69373069       0.06897843       0.00000000
Si       0.35432609      -2.22680553       3.05590580       0.00000000
Si      -2.68317477       0.00430056      -2.71540411       0.00000000
