10
Lattice="16.28999089631971 0.0 0.0 0.0 16.28999089631971 0.0 0.0 0.0 34.3005442915855" Properties=species:S:1:pos:R:3:initial_magmoms:R:1 pbc="T T T"
Si      -1.77199362      -1.59904662       0.05837956       0.00000000
Si       0.92207916       0.36587666       2.18587201       0.00000000
Si       1.76826551      -0.82141510      -1.89579214       0.00000000
Si      -0.90288954       1.74831122      -1.89167607       0.00000000
Si       0.12939147       0.14485394      -3.38508831       0.00000000
Si      -0.58969800       3.60343271       0.85075688       0.00000000
Si       3.03346420      -2.27845365       0.96466905       0.00000000
Si      -3.69870966      -0.81880382       1.22504462       0.00000000
Si       2.19902361      -1.44590433       3.02085062       0.00000000
Si      -1.68078591      -3.17042889       1.80472415       0.00000000
