10
Lattice="16.28999089631971 0.0 0.0 0.0 16.28999089631971 0.0 0.0 0.0 34.3005442915855" Properties=species:S:1:pos:R:3:initial_magmoms:R:1 pbc="T T T"
Si       1.09476945       1.69844427       1.22104316       0.00000000
Si      -1.62170208      -1.08307160       1.34598982       0.00000000
Si      -1.70590509       1.16414856      -1.36519673       0.00000000
Si       1.62232110      -2.05637792       0.01697878       0.00000000
Si       2.28677391       0.18938754       2.76967244       0.00000000
Si      -3.03088482      -0.74028276      -1.87016962       0.00000000
Si      -2.24547876      -2.98642031      -0.00343006       0.00000000
Si      -0.43574121      -2.53298856       2.79814191       0.00000000
Si       3.51621835      -1.22810636       1.34055661       0.00000000
Si      -1.59557292      -2.47868510      -2.65479501       0.00000000
