10
Lattice="16.28999089631971 0.0 0.0 0.0 16.28999089631971 0.0 0.0 0.0 34.3005442915855" Properties=species:S:1:pos:R:3:initial_magmoms:R:1 pbc="T T T"
Si       1.30693041      -1.38463371       1.38324911       0.00000000
Si      -1.22792391      -1.48519188      -1.38941091       0.00000000
Si      -1.41353217       1.33346682       1.39502450       0.00000000
Si       1.49208255       1.03905765      -1.66899480       0.00000000
Si      -2.05933293       0.29493045      -2.68535479       0.00000000
Si       2.57409693       2.67963984      -0.19558867       0.00000000
Si      -0.07130133       1.45388250      -3.45924411       0.00000000
Si       2.81463507      -2.56834656      -0.16380577       0.00000000
Si       2.65238667      -0.03179808       2.75905157       0.00000000
Si      -2.72590344       2.71518462       0.00658571       0.00000000
