10
Lattice="16.28999089631971 0.0 0.0 0.0 16.28999089631971 0.0 0.0 0.0 34.3005442915855" Properties=species:S:1:pos:R:3:initial_magmoms:R:1 pbc="T T T"
Si      -1.35467640       1.35739683      -1.36221258       0.00000000
Si       1.36122498      -1.35923760      -1.36210968       0.00000000
Si      -1.35974259      -1.36171368       1.37270855       0.00000000
Si       1.35990549       1.37456649       1.37267425       0.00000000
Si      -2.71482624       2.71236645      -0.00164643       0.00000000
Si      -2.71103067      -2.71622718      -0.00349866       0.00000000
Si       2.71663443      -2.71235016      -0.00583110       0.00000000
Si      -2.71252935      -0.00042354      -2.71921147       0.00000000
Si       0.00267156       2.71498914      -2.71883416       0.00000000
Si       2.72019507       2.71401174      -0.00336146       0.00000000
