10
Lattice="16.28999089631971 0.0 0.0 0.0 16.28999089631971 0.0 0.0 0.0 34.3005442915855" Properties=species:S:1:pos:R:3:initial_magmoms:R:1 pbc="T T T"
Si      -0.82663605       1.10149722       1.97317421       0.00000000
Si       0.75986334      -1.97545572       1.25817897       0.00000000
Si      -1.39916439      -1.40165676      -1.47900600       0.00000000
Si       1.41426522       1.27488798      -1.58780738       0.00000000
Si      -0.29704815       3.13272990       0.73588429       0.00000000
Si      -2.48767848       2.65572612      -0.18776128       0.00000000
Si       2.56698376      -2.78384697      -0.17445267       0.00000000
Si      -2.75213034      -2.68659567       0.06523967       0.00000000
Si       3.20143202       2.16380070      -0.13294898       0.00000000
Si       0.04737132       2.67134823      -2.98349731       0.00000000
