10
Lattice="16.28999089631971 0.0 0.0 0.0 16.28999089631971 0.0 0.0 0.0 34.3005442915855" Properties=species:S:1:pos:R:3:initial_magmoms:R:1 pbc="T T T"
Si       2.11725107       0.97844256      -0.44422660       0.00000000
Si      -1.29360519       1.35376416       1.50507442       0.00000000
Si       0.38569833      -2.01310191       1.31707304       0.00000000
Si      -0.78227838      -0.53312283      -2.47173290       0.00000000
Si      -2.72852613       2.43126621       0.07950871       0.00000000
Si      -0.18985995      -1.19526246       3.48497155       0.00000000
Si      -2.32872066      -0.24749397       2.93592243       0.00000000
Si       3.01738760       0.00364896      -2.43269886       0.00000000
Si       0.10928961       2.68771968       2.79491281       0.00000000
Si      -2.65843026      -1.95932862      -2.06499682       0.00000000
