10
Lattice="16.28999089631971 0.0 0.0 0.0 16.28999089631971 0.0 0.0 0.0 34.3005442915855" Properties=species:S:1:pos:R:3:initial_magmoms:R:1 pbc="T T T"
Si      -0.58422456      -0.68623254       2.19640228       0.00000000
Si       1.87615188       1.42620579      -0.40673608       0.00000000
Si      -1.93702761       0.66055950      -1.29789902       0.00000000
Si       0.82668492      -2.08655352      -0.99214380       0.00000000
Si       1.35627282      -0.05532084      -2.22943372       0.00000000
Si      -0.83435751      -0.53232462      -3.15307930       0.00000000
Si      -0.56153259      -3.57316263       0.46226869       0.00000000
Si      -2.18100294      -2.35776573       1.74699630       0.00000000
Si       1.27132047       2.65584015      -2.53498314       0.00000000
Si       2.65843026       1.95932862       2.06499682       0.00000000
