10
Lattice="16.28999089631971 0.0 0.0 0.0 16.28999089631971 0.0 0.0 0.0 34.3005442915855" Properties=species:S:1:pos:R:3:initial_magmoms:R:1 pbc="T T T"
Si      -1.12518288       0.42842700       2.00572545       0.00000000
Si      -1.75601313      -0.64187487      -1.45221726       0.00000000
Si       1.03511547       1.60125813      -1.43084800       0.00000000
Si       2.13886071      -0.94776849       0.54904912       0.00000000
Si       2.71441899      -1.76560794      -1.61884939       0.00000000
Si       3.40013255       1.04471028       0.84938485       0.00000000
Si      -0.54780012       2.68231140       2.51526032       0.00000000
Si       2.32872066       0.24749397      -2.93592243       0.00000000
Si      -2.22990552       1.33120251      -2.73337760       0.00000000
Si      -0.91393416      -2.39806719      -2.80451697       0.00000000
