10
Lattice="16.28999089631971 0.0 0.0 0.0 16.28999089631971 0.0 0.0 0.0 34.3005442915855" Properties=species:S:1:pos:R:3:initial_magmoms:R:1 pbc="T T T"
Si       2.09339532      -0.54213120       1.01900114       0.00000000
Si      -1.45305171       0.96264126       1.68083051       0.00000000
Si      -0.25598106       1.94650839      -1.43811972       0.00000000
Si      -0.65456478      -1.82856879      -1.53666524       0.00000000
Si      -3.37132953       1.05269238       0.38097636       0.00000000
Si      -2.63689488       1.83493818      -1.75598305       0.00000000
Si       3.66906204      -0.58637484      -0.85442704       0.00000000
Si       0.86920182       1.51808139      -3.44384517       0.00000000
Si       1.77639192      -2.70687672       2.11507564       0.00000000
Si      -0.34655346       2.90748807       2.65452061       0.00000000
