10
Lattice="16.28999089631971 0.0 0.0 0.0 16.28999089631971 0.0 0.0 0.0 34.3005442915855" Properties=species:S:1:pos:R:3:initial_magmoms:R:1 pbc="T T T"
Si       0.50704254      -2.12301054      -0.71290291       0.00000000
Si       1.74747717       0.81782316       1.37473228       0.00000000
Si      -1.64849913      -0.24288390       1.71200972       0.00000000
Si      -0.45862866       1.08331758      -2.15314927       0.00000000
Si      -1.66367652      -2.83066443      -1.29405736       0.00000000
Si       1.97600958      -1.50014610      -2.52877474       0.00000000
Si       1.10801322       3.10860441       1.62094173       0.00000000
Si      -2.55957344       2.23782246      -1.81611193       0.00000000
Si       1.54860885       2.36996694      -2.64995863       0.00000000
Si      -0.72081621      -1.64387277       3.43876869       0.00000000
