10
Lattice="16.28999089631971 0.0 0.0 0.0 16.28999089631971 0.0 0.0 0.0 34.3005442915855" Properties=species:S:1:pos:R:3:initial_magmoms:R:1 pbc="T T T"
Si      -0.87594588       1.15918011      -1.87915637       0.00000000
Si      -1.99531323      -1.24103736       0.37473366       0.00000000
Si       1.83558978      -1.57695345      -0.91719707       0.00000000
Si       0.40296573       1.72918350       2.01594702       0.00000000
Si      -1.84228497      -0.67675176      -2.96765045       0.00000000
Si       0.93740805       2.17865606      -2.94370866       0.00000000
Si       0.49417344       0.15780123       3.76229160       0.00000000
Si      -1.37275830      -3.57223410       0.31988705       0.00000000
Si       2.44042119      -2.80658781       1.21104999       0.00000000
Si      -3.06025569      -0.64705509       2.36159379       0.00000000
