10
Lattice="16.28999089631971 0.0 0.0 0.0 16.28999089631971 0.0 0.0 0.0 34.3005442915855" Properties=species:S:1:pos:R:3:initial_magmoms:R:1 pbc="T T T"
Si      -1.25998589       1.34413677       1.46014069       0.00000000
Si       2.01930677       0.64011555      -1.15829573       0.00000000
Si       0.85833476      -1.91751219       1.21883622       0.00000000
Si      -1.38335820      -0.16573446      -2.04496529       0.00000000
Si       2.03507549      -1.33511211      -2.42408942       0.00000000
Si       1.03192100      -3.21686449      -0.85562756       0.00000000
Si      -2.00934774       3.04596936      -0.16176146       0.00000000
Si      -1.47556456       2.24694486      -2.50455854       0.00000000
Si      -0.04552566      -1.41470505      -3.55748294       0.00000000
Si       2.43960506      -0.49754547       2.91168706       0.00000000
