10
Lattice="16.28999089631971 0.0 0.0 0.0 16.28999089631971 0.0 0.0 0.0 34.3005442915855" Properties=species:S:1:pos:R:3:initial_magmoms:R:1 pbc="T T T"
Si      -1.48748130      -1.20951621      -1.48835774       0.00000000
Si       1.40514119      -1.30021893       1.53313228       0.00000000
Si       1.08419561       1.40488218      -1.70040382       0.00000000
Si      -1.31572523       1.41493311       1.54481506       0.00000000
Si      -1.08222615       2.59289559      -2.52299994       0.00000000
Si      -2.67119415       0.68528772      -2.60679621       0.00000000
Si      -2.75779179      -2.66352903      -0.02284075       0.00000000
Si       2.66237081       2.76987015      -0.05770384       0.00000000
Si      -2.75567409       2.80824939       0.21356560       0.00000000
Si       0.03407053      -2.65841397       2.93128499       0.00000000
