10
Lattice="16.28999089631971 0.0 0.0 0.0 16.28999089631971 0.0 0.0 0.0 34.3005442915855" Properties=species:S:1:pos:R:3:initial_magmoms:R:1 pbc="T T T"
Si       1.35630582       1.35687555       1.35713609       0.00000000
Si      -1.35840543      -1.35843939       1.35741050       0.00000000
Si      -1.35785157       1.35835794      -1.36166377       0.00000000
Si       1.35599794      -1.36041048      -1.36190387       0.00000000
Si       2.71444385      -0.00135207       2.71440939       0.00000000
Si       2.71341758      -2.71554300       0.00068601       0.00000000
Si      -0.00106889       2.71423980       2.71509540       0.00000000
Si      -2.71526469      -2.71461447      -0.00065171       0.00000000
Si       2.71516061       2.71552671      -0.00106332       0.00000000
Si      -0.00132647      -2.71564074       2.71509540       0.00000000
