10
Lattice="16.28999089631971 0.0 0.0 0.0 16.28999089631971 0.0 0.0 0.0 34.3005442915855" Properties=species:S:1:pos:R:3:initial_magmoms:R:1 pbc="T T T"
Si       1.29007026      -1.33250571      -1.40807243       0.00000000
Si      -1.44859640       1.38616497      -1.36718616       0.00000000
Si       1.61445303       1.36270737       1.39078495       0.00000000
Si      -0.99883764      -1.82532708       1.46326204       0.00000000
Si       2.53537560      -2.75947713       0.00734032       0.00000000
Si      -1.78329562      -0.45854721       3.34224690       0.00000000
Si       2.63391381       0.02221956      -2.76589454       0.00000000
Si      -0.07804539      -2.69324199      -2.76393940       0.00000000
Si      -0.07864812       2.73461859      -2.76304759       0.00000000
Si      -2.78600444      -2.71423980       0.00840364       0.00000000
