10
Lattice="16.28999089631971 0.0 0.0 0.0 16.28999089631971 0.0 0.0 0.0 34.3005442915855" Properties=species:S:1:pos:R:3:initial_magmoms:R:1 pbc="T T T"
Si       1.82600197       1.32053256       0.75684193       0.00000000
Si       0.82563307      -2.14185807      -0.68014587       0.00000000
Si      -0.66099951       1.15668774      -2.04036902       0.00000000
Si      -1.57566672       0.04424364       1.87342818       0.00000000
Si       2.50790137       0.04935870       2.61181640       0.00000000
Si       0.60027233       3.14916651      -1.74003328       0.00000000
Si      -1.19718486      -3.33040905      -0.98229954       0.00000000
Si       1.09442785       3.57524775       0.52490152       0.00000000
Si      -3.66906204       0.58637484       0.85442704       0.00000000
Si       3.58214542       1.20963024      -0.77121387       0.00000000
