10
Lattice="16.28999089631971 0.0 0.0 0.0 16.28999089631971 0.0 0.0 0.0 34.3005442915855" Properties=species:S:1:pos:R:3:initial_magmoms:R:1 pbc="T T T"
Si       1.75614345      -0.11090232      -1.52805580       0.00000000
Si       0.68189940      -1.27117386       1.85497447       0.00000000
Si      -1.82600197      -1.32053256      -0.75684193       0.00000000
Si      -0.73157413       2.25471519      -0.23194041       0.00000000
Si      -1.22572965       1.82863395      -2.49687522       0.00000000
Si       0.98756496       1.44950049      -3.12876020       0.00000000
Si      -0.65872199      -0.27220590       3.55065713       0.00000000
Si      -2.48700149      -0.16384482      -2.79721095       0.00000000
Si      -2.33030798       2.52369567       1.50322219       0.00000000
Si       3.02435253      -0.65708973       2.19842601       0.00000000
