10
Lattice="16.28999089631971 0.0 0.0 0.0 16.28999089631971 0.0 0.0 0.0 34.3005442915855" Properties=species:S:1:pos:R:3:initial_magmoms:R:1 pbc="T T T"
Si       1.35606105      -1.35615879      -1.35967434       0.00000000
Si       1.35568638       1.35695700       1.36056615       0.00000000
Si      -1.35785295       1.36187658      -1.35799361       0.00000000
Si      -1.36994828      -1.34845362       1.39586143       0.00000000
Si      -0.13926321       2.59380783       2.67108778       0.00000000
Si       2.71256193      -2.71239903      -0.00284695       0.00000000
Si      -2.71396064      -2.71295289      -0.00027440       0.00000000
Si      -0.00079821      -2.71278999      -2.71674183       0.00000000
Si       2.71352304       0.00260640      -2.71605582       0.00000000
Si       2.71052568       2.72026710      -0.00041161       0.00000000
