10
Lattice="16.28999089631971 0.0 0.0 0.0 16.28999089631971 0.0 0.0 0.0 34.3005442915855" Properties=species:S:1:pos:R:3:initial_magmoms:R:1 pbc="T T T"
Si      -1.34401236      -1.36449927      -1.39613583       0.00000000
Si       1.36994828       1.34845362      -1.39586143       0.00000000
Si       1.44859640      -1.38616497       1.36718616       0.00000000
Si      -1.46577324       1.44277272       1.63593107       0.00000000
Si      -2.70430194      -2.70394452      -0.02010013       0.00000000
Si      -2.70791832       2.71712313      -0.00552239       0.00000000
Si       2.72563465       2.70541062      -0.03529528       0.00000000
Si      -2.70299874      -0.00648342      -2.75433525       0.00000000
Si       2.73866665      -2.71867068      -0.04088627       0.00000000
Si       0.01209532       2.71033020      -2.75385504       0.00000000
