10
Lattice="16.28999089631971 0.0 0.0 0.0 16.28999089631971 0.0 0.0 0.0 34.3005442915855" Properties=species:S:1:pos:R:3:initial_magmoms:R:1 pbc="T T T"
Si       0.62029062      -0.07967439      -2.20950510       0.00000000
Si      -2.21329461       0.37913346       0.63188498       0.00000000
Si       1.12397742       1.98423603       0.55086705       0.00000000
Si       0.76857849      -1.56040281       1.60070440       0.00000000
Si      -1.71913909       0.80521470       2.89681979       0.00000000
Si       0.17135451       2.32052679       2.67674737       0.00000000
Si      -0.98756496      -1.44950049       3.12876020       0.00000000
Si       3.31255521       1.22513832       0.91009685       0.00000000
Si       2.99548665      -0.85460598       1.93105312       0.00000000
Si       1.20917412      -2.29904028      -2.67019596       0.00000000
