10
Lattice="10.86 0.0 0.0 0.0 10.86 0.0 0.0 0.0 10.86" Properties=species:S:1:pos:R:3:initial_magmoms:R:1 pbc="T T T"
Si      -1.23833322      -1.25242950       1.42105272       0.00000000
Si      -1.56411150       1.03421952      -1.34433768       0.00000000
Si       1.47666678      -1.25242950      -1.29394728       0.00000000
Si       1.47666678       1.46257050       1.42105272       0.00000000
Si      -2.59583322      -2.60992950       0.06355272       0.00000000
Si      -2.73993456      -0.06542064       2.49884256       0.00000000
Si       0.11916678      -2.60992950      -2.65144728       0.00000000
Si       0.13797630       2.63192100      -2.69221572       0.00000000
Si       0.11916678      -2.60992950       2.77855272       0.00000000
Si       2.83416678      -2.60992950       0.06355272       0.00000000
