10
Lattice="10.86 0.0 0.0 0.0 10.86 0.0 0.0 0.0 10.86" Properties=species:S:1:pos:R:3:initial_magmoms:R:1 pbc="T T T"
Si       0.69064170       1.63161726      -1.72405758       0.00000000
Si       0.45223212      -2.48513724      -0.10225776       0.00000000
Si      -1.65950574      -0.79033650      -1.77235200       0.00000000
Si      -1.94807766       1.70838660       0.83575302       0.00000000
Si       0.09499242      -1.56711972       2.31029124       0.00000000
Si       3.12609444      -1.29224226      -1.47622152       0.00000000
Si       3.12206538       1.81903914       0.80315130       0.00000000
Si       2.02087224       3.06139056      -0.53670120       0.00000000
Si      -0.69412776       3.06139056       2.17829880       0.00000000
Si       2.02087224       0.34639056      -3.25170120       0.00000000
