10
Lattice="10.86 0.0 0.0 0.0 10.86 0.0 0.0 0.0 10.86" Properties=species:S:1:pos:R:3:initial_magmoms:R:1 pbc="T T T"
Si       1.33023054       1.42977330       1.18735638       0.00000000
Si       1.33023054      -1.28522670      -1.52764362       0.00000000
Si      -0.69064170      -1.63161726       1.72405758       0.00000000
Si      -1.38476946       1.42977330      -1.52764362       0.00000000
Si      -2.35014744      -2.42195376      -0.04829442       0.00000000
Si       2.43142368       0.18742188       2.52720888       0.00000000
Si      -2.63871936       0.07676934       2.55981060       0.00000000
Si      -0.02726946       2.78727330       2.54485638       0.00000000
Si       2.43545274      -2.92385952       0.24783606       0.00000000
Si       2.68773054       2.78727330      -0.17014362       0.00000000
