10
Lattice="10.86 0.0 0.0 0.0 10.86 0.0 0.0 0.0 10.86" Properties=species:S:1:pos:R:3:initial_magmoms:R:1 pbc="T T T"
Si       1.18701972       1.41223440       1.33485690       0.00000000
Si       1.97613990      -0.50127588      -1.24815066       0.00000000
Si      -1.52798028      -1.30276560       1.33485690       0.00000000
Si      -1.52798028       1.41223440      -1.38014310       0.00000000
Si       2.55633540      -2.56961718      -0.07301178       0.00000000
Si       2.54451972       0.05473440       2.69235690       0.00000000
Si      -0.17048028      -2.66026560       2.69235690       0.00000000
Si       2.52331014       2.87785656       0.10010748       0.00000000
Si      -0.17048028       2.76973440       2.69235690       0.00000000
Si      -0.06693018       2.77423044      -2.72268888       0.00000000
