10
Lattice="10.86 0.0 0.0 0.0 10.86 0.0 0.0 0.0 10.86" Properties=species:S:1:pos:R:3:initial_magmoms:R:1 pbc="T T T"
Si       1.25394990       1.35300396       1.34254578       0.00000000
Si      -1.46105010      -1.36199604       1.34254578       0.00000000
Si      -1.46105010       1.35300396      -1.37245422       0.00000000
Si       1.94807766      -1.70838660      -0.83575302       0.00000000
Si       0.28857192      -2.49872310      -2.60810502       0.00000000
Si       2.63871936      -0.07676934      -2.55981060       0.00000000
Si       2.61144990       2.71050396      -0.01495422       0.00000000
Si      -0.10355010       2.71050396       2.70004578       0.00000000
Si       2.59024032       0.10362612       2.82279636       0.00000000
Si      -0.10355010       2.71050396      -2.72995422       0.00000000
