10
Lattice="10.86 0.0 0.0 0.0 10.86 0.0 0.0 0.0 10.86" Properties=species:S:1:pos:R:3:initial_magmoms:R:1 pbc="T T T"
Si      -1.10119314       1.24235142      -1.33985250       0.00000000
Si       1.61380686       1.24235142       1.37514750       0.00000000
Si       1.61380686      -1.47264858      -1.33985250       0.00000000
Si      -2.43142368      -0.18742188      -2.52720888       0.00000000
Si      -2.45869314       2.59985142       0.01764750       0.00000000
Si      -3.12206538      -1.81903914      -0.80315130       0.00000000
Si       0.25630686       2.59985142      -2.69735250       0.00000000
Si       0.25630686       2.59985142       2.73264750       0.00000000
Si      -2.47990272      -0.00702642       2.85539808       0.00000000
Si       0.00402906      -3.11128140      -2.27937282       0.00000000
