10
Lattice="16.28999089631971 0.0 0.0 0.0 16.28999089631971 0.0 0.0 0.0 34.32429715621058" Properties=species:S:1:pos:R:3:initial_magmoms:R:1 pbc="T T T"
Si       1.55918106       0.95748289       1.40396751       0.00000000
Si      -2.17860016       0.18438651       0.84554521       0.00000000
Si       0.46791396      -2.29680855       0.05272215       0.00000000
Si      -0.35606682       0.53993205      -2.27027893       0.00000000
Si      -0.72826074      -2.99213091      -1.84489768       0.00000000
Si       0.92260044       0.10414197       3.53310485       0.00000000
Si       0.30382479      -1.47771477      -3.32914977       0.00000000
Si      -2.73543961       0.76064528      -2.32887054       0.00000000
Si      -3.48142409      -0.90218907      -0.74267523       0.00000000
Si      -0.10138896      -3.22636482       2.10408059       0.00000000
