10
Lattice="16.28999089631971 0.0 0.0 0.0 16.28999089631971 0.0 0.0 0.0 34.32429715621058" Properties=species:S:1:pos:R:3:initial_magmoms:R:1 pbc="T T T"
Si      -0.83217465      -1.90832463       1.10009434       0.00000000
Si       1.31825196      -1.35096065      -1.49502992       0.00000000
Si       1.76148657       0.98179830       1.31668077       0.00000000
Si      -1.39429368       1.36285398      -1.45590020       0.00000000
Si       3.35722239      -0.95048892       1.16170649       0.00000000
Si       2.62309725       2.61532692      -0.17769699       0.00000000
Si       2.61390969      -2.77424306      -0.14412780       0.00000000
Si      -2.69811270      -2.74071824      -0.15476834       0.00000000
Si       2.68343541      -0.00146610      -2.85547420       0.00000000
Si      -2.75688702       2.79891522       0.00435919       0.00000000
