10
Lattice="16.28999089631971 0.0 0.0 0.0 16.28999089631971 0.0 0.0 0.0 34.32429715621058" Properties=species:S:1:pos:R:3:initial_magmoms:R:1 pbc="T T T"
Si      -1.17455787      -0.29478384       2.05990520       0.00000000
Si       2.22236325      -0.92958885       0.43482044       0.00000000
Si      -0.39306141       1.97281674      -1.42802886       0.00000000
Si       1.04273919      -1.85208666      -1.86130470       0.00000000
Si      -0.96065388      -2.73770459      -0.88508682       0.00000000
Si       0.03266145      -2.16308720       2.94265796       0.00000000
Si      -2.73564486       2.26851282      -1.16314811       0.00000000
Si      -0.86973939       1.76013450       3.19003331       0.00000000
Si      -3.71811105       0.18380007      -0.76804090       0.00000000
Si      -3.44318472      -0.63291537       1.56882720       0.00000000
