10
Lattice="16.28999089631971 0.0 0.0 0.0 16.28999089631971 0.0 0.0 0.0 34.32429715621058" Properties=species:S:1:pos:R:3:initial_magmoms:R:1 pbc="T T T"
Si      -1.55918106      -0.95748289      -1.40396751       0.00000000
Si      -0.27256428       2.30984218       0.27658534       0.00000000
Si      -0.63658062      -0.85334092       2.12913734       0.00000000
Si       2.23381512      -0.48886846      -0.70800767       0.00000000
Si       0.44787726       0.67468456       3.51498161       0.00000000
Si      -0.96545943       2.38153447       2.61613074       0.00000000
Si      -1.09126710      -3.25429144      -1.35124536       0.00000000
Si       3.63762216       0.70604281       0.88237520       0.00000000
Si      -0.20100231      -3.09036517       2.23344894       0.00000000
Si      -3.73778122      -0.77309638      -0.55842230       0.00000000
