10
Lattice="16.28999089631971 0.0 0.0 0.0 16.28999089631971 0.0 0.0 0.0 34.32429715621058" Properties=species:S:1:pos:R:3:initial_magmoms:R:1 pbc="T T T"
Si       1.37714031       1.91811687      -0.08721809       0.00000000
Si      -1.38499209       0.15934911      -1.95030765       0.00000000
Si      -1.70583993       0.36185335       1.65281880       0.00000000
Si       2.77260687      -0.09671896      -0.66695579       0.00000000
Si      -0.67942332      -2.11022812      -1.96836224       0.00000000
Si       0.11749977       1.21010786       3.01237206       0.00000000
Si       2.75651235      -2.49245668      -0.53858285       0.00000000
Si      -3.62489967       0.25442895      -1.14499054       0.00000000
Si       1.06611534       3.10870410       1.93581048       0.00000000
Si       0.83364075       3.56425395      -1.62034800       0.00000000
