10
Lattice="16.28999089631971 0.0 0.0 0.0 16.28999089631971 0.0 0.0 0.0 34.32429715621058" Properties=species:S:1:pos:R:3:initial_magmoms:R:1 pbc="T T T"
Si       1.35720135       1.35658233      -1.35714914       0.00000000
Si       1.35715248      -1.35759231       1.35680590       0.00000000
Si      -1.35814617       1.35751086       1.35725212       0.00000000
Si      -1.35764118      -1.35910728      -1.35780131       0.00000000
Si       2.71419093      -0.00074934       2.71409234       0.00000000
Si       2.71241532      -0.00206883      -2.71625477       0.00000000
Si      -0.00156384       2.71366965       2.71519072       0.00000000
Si       2.71433754      -2.71489140       0.00013730       0.00000000
Si       2.71437012       2.71520091       0.00020595       0.00000000
Si       0.00100998      -2.71521720       2.71563694       0.00000000
