10
Lattice="16.28999089631971 0.0 0.0 0.0 16.28999089631971 0.0 0.0 0.0 34.32429715621058" Properties=species:S:1:pos:R:3:initial_magmoms:R:1 pbc="T T T"
Si       1.37095011      -0.04556313       1.91776820       0.00000000
Si       0.49236525      -1.61966583      -1.66445475       0.00000000
Si      -1.94857722      -0.80972703       1.10383569       0.00000000
Si      -0.36813771       1.88356383      -1.46784506       0.00000000
Si      -3.09887113      -1.00183500      -0.95085221       0.00000000
Si      -2.71868860       1.33555194      -1.79749580       0.00000000
Si      -0.07268598       0.85379148       3.52884864       0.00000000
Si      -2.35139634       0.78263676       2.80333556       0.00000000
Si       3.27036411       1.22091921       1.40170211       0.00000000
Si       3.54586059       0.47641734      -1.29903808       0.00000000
