10
Lattice="16.28999089631971 0.0 0.0 0.0 16.28999089631971 0.0 0.0 0.0 34.32429715621058" Properties=species:S:1:pos:R:3:initial_magmoms:R:1 pbc="T T T"
Si       1.65208293      -1.17833715       1.22486323       0.00000000
Si      -2.22174749      -0.43943904       0.78118712       0.00000000
Si       0.90709236       2.09815200       0.79048901       0.00000000
Si      -0.38825586      -0.23376150      -2.40737025       0.00000000
Si       3.56019579       0.10091655       0.49626097       0.00000000
Si      -2.97479216      -2.31567400      -0.42249801       0.00000000
Si       1.02959316       3.50461431      -1.05578165       0.00000000
Si      -3.52490255       1.46056140       0.20893211       0.00000000
Si      -0.82766232       3.34200753       1.66150286       0.00000000
Si       0.95918778      -1.10664486       3.56440863       0.00000000
