10
Lattice="16.28999089631971 0.0 0.0 0.0 16.28999089631971 0.0 0.0 0.0 34.32429715621058" Properties=species:S:1:pos:R:3:initial_magmoms:R:1 pbc="T T T"
Si      -1.39517334       1.26071568      -1.51510965       0.00000000
Si      -1.85482827      -0.87164532       1.28160132       0.00000000
Si       1.29230199      -1.44666603      -1.50711208       0.00000000
Si       1.15973397       1.79194887       1.45346318       0.00000000
Si       1.76642244      -0.36315297       2.19359841       0.00000000
Si       2.67838551       2.65932621      -0.12586727       0.00000000
Si      -2.88310194       2.43809172      -0.10571889       0.00000000
Si      -2.77418700      -2.72839581      -0.02588053       0.00000000
Si      -0.05092254       2.61796590      -2.88331122       0.00000000
Si       2.60579727      -2.91198411      -0.20793671       0.00000000
