10
Lattice="16.28999089631971 0.0 0.0 0.0 16.28999089631971 0.0 0.0 0.0 34.32429715621058" Properties=species:S:1:pos:R:3:initial_magmoms:R:1 pbc="T T T"
Si       2.32598394       0.12085551      -0.13321267       0.00000000
Si      -0.91496043       2.21863284      -0.19386374       0.00000000
Si      -0.56101131      -0.51556221       2.38660404       0.00000000
Si      -0.09695808      -1.82731446      -1.86044659       0.00000000
Si       2.48593545      -2.37754179      -0.56398284       0.00000000
Si      -2.74486500      -1.39248549       2.07167844       0.00000000
Si      -3.09145104       2.01847761       0.79985954       0.00000000
Si       1.42169346      -0.95993712      -3.43977704       0.00000000
Si      -3.29698197       0.52556427      -1.98343062       0.00000000
Si       3.23356500      -0.05748741      -2.26022191       0.00000000
