10
Lattice="16.28999089631971 0.0 0.0 0.0 16.28999089631971 0.0 0.0 0.0 34.32429715621058" Properties=species:S:1:pos:R:3:initial_magmoms:R:1 pbc="T T T"
Si      -0.16633719      -2.33567649      -0.05237891       0.00000000
Si      -0.81427194       0.47850246       2.17307247       0.00000000
Si      -1.47198069       1.29455001      -1.41824643       0.00000000
Si       2.34437535       0.34064019      -0.49478502       0.00000000
Si      -1.69780896       3.33909162      -0.17017996       0.00000000
Si       1.21425660      -3.06981792       1.77950986       0.00000000
Si      -1.46222298       2.77381233       2.14156274       0.00000000
Si      -2.99193543      -0.42329565       2.32801243       0.00000000
Si       2.64015288       2.20993398      -1.91320307       0.00000000
Si       3.03684696      -1.13850810      -2.25857434       0.00000000
