10
Lattice="16.28999089631971 0.0 0.0 0.0 16.28999089631971 0.0 0.0 0.0 34.32429715621058" Properties=species:S:1:pos:R:3:initial_magmoms:R:1 pbc="T T T"
Si       0.60751926      -2.17451952       0.69345416       0.00000000
Si       1.54320057       1.47336534       1.14035676       0.00000000
Si      -2.18295774       1.02576501      -0.46320665       0.00000000
Si       0.08571798      -0.12057858      -2.69178154       0.00000000
Si       2.24935578      -1.18361511      -2.21954759       0.00000000
Si      -1.63947447      -1.90518066      -2.30982054       0.00000000
Si       0.82126035       2.21128605      -2.61805290       0.00000000
Si       2.81276172      -2.27069568      -0.08110836       0.00000000
Si       2.51520858       2.41539975      -1.00625166       0.00000000
Si      -3.63855883      -0.40467618       0.76663361       0.00000000
