10
Lattice="16.28999089631971 0.0 0.0 0.0 16.28999089631971 0.0 0.0 0.0 34.32429715621058" Properties=species:S:1:pos:R:3:initial_magmoms:R:1 pbc="T T T"
Si       0.48350349       1.85917770       1.30147510       0.00000000
Si      -2.14055487      -0.82288935       0.67509065       0.00000000
Si       1.41333669      -1.70684991       0.89885087       0.00000000
Si       0.69289515      -0.07169229      -2.33954540       0.00000000
Si       0.32887881      -3.23487539      -0.48699340       0.00000000
Si       2.59312365       2.46278736       0.48840070       0.00000000
Si       0.96545943      -2.38153447      -2.61613074       0.00000000
Si      -1.88633313      -3.15305072       0.37904343       0.00000000
Si      -0.95918778       1.10664486      -3.56440863       0.00000000
Si       0.85069638       1.37075463       3.55301296       0.00000000
