10
Lattice="16.28999089631971 0.0 0.0 0.0 16.28999089631971 0.0 0.0 0.0 34.32429715621058" Properties=species:S:1:pos:R:3:initial_magmoms:R:1 pbc="T T T"
Si       1.35529542      -1.35567009      -1.35570752       0.00000000
Si      -1.35788553       1.35462006      -1.35498671       0.00000000
Si      -1.35894438      -1.37101527       1.34177185       0.00000000
Si       1.34951247       1.36224378       1.36037563       0.00000000
Si       2.64517020      -0.06103863       2.71127775       0.00000000
Si      -2.66685219      -0.02751381       2.70063721       0.00000000
Si       2.71469592       2.71173833      -0.00006865       0.00000000
Si       2.71383255       0.00006830      -2.71316558       0.00000000
Si       2.71176372      -2.71534752       0.00483973       0.00000000
Si      -2.71547784      -2.71179630       0.00223108       0.00000000
