10
Lattice="16.28999089631971 0.0 0.0 0.0 16.28999089631971 0.0 0.0 0.0 34.32429715621058" Properties=species:S:1:pos:R:3:initial_magmoms:R:1 pbc="T T T"
Si       0.43557831      -2.23702425       0.10431160       0.00000000
Si       1.08445788       1.52802548       1.38584427       0.00000000
Si      -2.21521194       0.08182467       0.86603683       0.00000000
Si       0.63658062       0.85334092      -2.12913734       0.00000000
Si      -0.32887881       3.23487539       0.48699340       0.00000000
Si      -2.46943368       2.41198604       1.16208405       0.00000000
Si      -0.92260044      -0.10414197      -3.53310485       0.00000000
Si       0.36401634       3.16318310      -1.85255200       0.00000000
Si       0.68263245       0.76087888       3.60292051       0.00000000
Si      -1.02398940      -3.33050679      -1.42902426       0.00000000
