10
Lattice="16.28999089631971 0.0 0.0 0.0 16.28999089631971 0.0 0.0 0.0 34.32429715621058" Properties=species:S:1:pos:R:3:initial_magmoms:R:1 pbc="T T T"
Si      -1.34509788      -1.35888899       1.37763733       0.00000000
Si       1.37254653       1.35479043       1.38415895       0.00000000
Si       1.28746386      -1.41971097      -1.43935588       0.00000000
Si      -1.42039026       1.36772469      -1.38027344       0.00000000
Si       2.70225036      -2.71029676       0.02912418       0.00000000
Si       2.71568961       2.69920413       0.01427548       0.00000000
Si      -2.71508688      -2.72072951      -0.00770581       0.00000000
Si      -2.70343953      -0.00304623       2.74007242       0.00000000
Si       0.01221750       2.71163340       2.73959188       0.00000000
Si      -2.71117728       2.74015719       0.01949621       0.00000000
