10
Lattice="16.28999089631971 0.0 0.0 0.0 16.28999089631971 0.0 0.0 0.0 34.32429715621058" Properties=species:S:1:pos:R:3:initial_magmoms:R:1 pbc="T T T"
Si      -1.42799769       1.25509563       1.32972401       0.00000000
Si       1.34669430       1.35625653      -1.34441482       0.00000000
Si       1.25276616      -1.41807708       1.39957400       0.00000000
Si      -1.36765953      -1.36169739      -1.34805320       0.00000000
Si      -0.69387255      -2.31072021       2.66912749       0.00000000
Si      -2.28960837      -0.37843299       2.82410178       0.00000000
Si      -0.14739192       2.65867461       2.69782262       0.00000000
Si       2.70353727      -0.00156384      -2.70324586       0.00000000
Si       2.70967860       2.70593190       0.03487351       0.00000000
Si      -0.01166364       2.71308321      -2.70372640       0.00000000
