10
Lattice="16.28999089631971 0.0 0.0 0.0 16.28999089631971 0.0 0.0 0.0 34.32429715621058" Properties=species:S:1:pos:R:3:initial_magmoms:R:1 pbc="T T T"
Si      -1.05588033      -1.63260009      -1.30827132       0.00000000
Si       2.27488221       0.32040801      -0.79920738       0.00000000
Si       0.39332205      -1.18131822       2.26286488       0.00000000
Si      -1.15988547       2.14544187      -0.99386058       0.00000000
Si       0.19578951      -3.42926329      -0.43097612       0.00000000
Si       2.69760771       2.37065112       0.26999507       0.00000000
Si       1.90768932       0.80883108      -3.05074524       0.00000000
Si       0.45061398       2.63998998      -2.73327963       0.00000000
Si       1.53424107       0.32667966       3.74846389       0.00000000
Si      -0.71636904      -1.87323597      -3.67712969       0.00000000
