10
Lattice="16.28999089631971 0.0 0.0 0.0 16.28999089631971 0.0 0.0 0.0 34.32429715621058" Properties=species:S:1:pos:R:3:initial_magmoms:R:1 pbc="T T T"
Si      -0.20515626      -2.16951849       0.76714847       0.00000000
Si       1.09675683      -0.18544536      -2.07112925       0.00000000
Si      -2.20722984       0.71353458      -0.56724365       0.00000000
Si       1.46771271       1.34508159       1.36713752       0.00000000
Si       0.01400940       1.51971039      -3.24062735       0.00000000
Si      -1.08302436      -1.81850157       2.96136472       0.00000000
Si       3.54175551       0.85147830       0.35251073       0.00000000
Si       2.07316314      -2.80860614       1.14732460       0.00000000
Si      -2.65038300       2.63340882       0.68229876       0.00000000
Si       3.11547879       0.98217297      -1.94773333       0.00000000
