10
Lattice="16.28999089631971 0.0 0.0 0.0 16.28999089631971 0.0 0.0 0.0 34.32429715621058" Properties=species:S:1:pos:R:3:initial_magmoms:R:1 pbc="T T T"
Si       1.82853621       1.33881825       0.58413122       0.00000000
Si      -2.22127182      -0.11831743       0.81904684       0.00000000
Si      -0.40825998       0.31274047      -2.31877919       0.00000000
Si       0.74663586      -2.16344609       0.69287065       0.00000000
Si      -0.71861706      -3.14183978      -0.83819980       0.00000000
Si      -0.18443538      -1.94483429      -2.83282015       0.00000000
Si       3.10756185       1.16139571      -1.39088995       0.00000000
Si      -2.81316897      -2.39061014      -0.04963296       0.00000000
Si       1.47833379       1.64301282      -3.00818308       0.00000000
Si       0.97624341       3.25606491       1.55399910       0.00000000
