10
Lattice="16.28999089631971 0.0 0.0 0.0 16.28999089631971 0.0 0.0 0.0 34.32429715621058" Properties=species:S:1:pos:R:3:initial_magmoms:R:1 pbc="T T T"
Si       0.25192485       0.20513997       2.33903054       0.00000000
Si       0.48324285       2.23256079      -0.67052552       0.00000000
Si       1.06947108      -1.78572609      -1.16664919       0.00000000
Si      -2.22812991      -0.87379560      -0.16980239       0.00000000
Si      -0.88309719       2.27097261       2.67283451       0.00000000
Si      -1.09801116       2.53666251      -2.44409727       0.00000000
Si       0.90153747      -3.64184127       0.29700831       0.00000000
Si      -0.52652538      -2.70596448      -2.63191993       0.00000000
Si      -3.23780040      -0.52458687       1.98930008       0.00000000
Si      -1.44238176      -0.98938944       3.45309487       0.00000000
