10
Lattice="16.28999089631971 0.0 0.0 0.0 16.28999089631971 0.0 0.0 0.0 34.32429715621058" Properties=species:S:1:pos:R:3:initial_magmoms:R:1 pbc="T T T"
Si       1.35555606       1.35495333       1.38246676       0.00000000
Si      -1.36019871      -1.36573731       1.38315325       0.00000000
Si       1.28653533      -1.45362186      -1.41634829       0.00000000
Si      -1.36648665       1.34096022      -1.49743606       0.00000000
Si       2.69474067       2.70738171       0.00083751       0.00000000
Si      -2.71814940       2.69778690       0.00346676       0.00000000
Si      -2.72357397      -2.69237862       0.02168267       0.00000000
Si       2.70329292      -2.73333168       0.01646194       0.00000000
Si      -0.00184077       2.70721881       2.74174401       0.00000000
Si       2.71471221      -0.00855225       2.74236185       0.00000000
