10
Lattice="16.28999089631971 0.0 0.0 0.0 16.28999089631971 0.0 0.0 0.0 34.32429715621058" Properties=species:S:1:pos:R:3:initial_magmoms:R:1 pbc="T T T"
Si       1.35672894       1.35733167       1.35776698       0.00000000
Si      -1.35744570       1.35754344      -1.35701185       0.00000000
Si       1.35778779      -1.35780408      -1.35701185       0.00000000
Si      -1.35762489      -1.35840681       1.35687455       0.00000000
Si      -0.00104256       2.71322982      -2.71488180       0.00000000
Si      -2.71334385       0.00094482       2.71553396       0.00000000
Si      -2.71461447      -0.00107514      -2.71436694       0.00000000
Si      -2.71467963       2.71448415       0.00017162       0.00000000
Si       0.00061902      -2.71489140      -2.71484748       0.00000000
Si       2.71551042      -0.00254124      -2.71426396       0.00000000
