10
Lattice="16.28999089631971 0.0 0.0 0.0 16.28999089631971 0.0 0.0 0.0 34.32429715621058" Properties=species:S:1:pos:R:3:initial_magmoms:R:1 pbc="T T T"
Si       1.22976776      -1.42265457      -1.35415606       0.00000000
Si      -1.34892525      -1.35513252       1.33743669       0.00000000
Si      -1.49367819       1.17450900      -1.36903909       0.00000000
Si       1.36805194       1.36011726       1.33630399       0.00000000
Si       1.93454321       0.57234915      -2.60721603       0.00000000
Si       0.22163179       2.35410048      -2.46783906       0.00000000
Si      -2.19574461      -0.77910183      -2.63338283       0.00000000
Si      -0.37304022      -2.49064326      -2.74830480       0.00000000
Si      -2.70557274      -0.00125433       2.69369340       0.00000000
Si       0.00881813      -2.71394658       2.69310989       0.00000000
