10
Lattice="16.28999089631971 0.0 0.0 0.0 16.28999089631971 0.0 0.0 0.0 34.32429715621058" Properties=species:S:1:pos:R:3:initial_magmoms:R:1 pbc="T T T"
Si      -0.15995151       2.49839730       0.43077017       0.00000000
Si      -1.97620506      -1.60487451      -0.55632852       0.00000000
Si       1.46188089      -0.57107853       2.11025897       0.00000000
Si       2.46096288       0.31672647      -1.46259344       0.00000000
Si      -2.58289353       0.55022733      -1.29646375       0.00000000
Si       0.74762955       2.32005438      -1.69623906       0.00000000
Si       0.14377554      -2.75012667      -1.58976504       0.00000000
Si      -1.46580678      -2.51274879       1.61571422       0.00000000
Si      -1.06424199       1.41760467      -2.87579420       0.00000000
Si      -2.48593545       2.37754179       0.56398284       0.00000000
