10
Lattice="16.28999089631971 0.0 0.0 0.0 16.28999089631971 0.0 0.0 0.0 34.32429715621058" Properties=species:S:1:pos:R:3:initial_magmoms:R:1 pbc="T T T"
Si       0.32268861       0.86965794       2.14084193       0.00000000
Si       2.10083985       0.70817517      -0.82412684       0.00000000
Si      -1.87035264       1.16418114      -0.91803816       0.00000000
Si       0.24376356      -2.36381651      -0.26865642       0.00000000
Si      -3.62708253      -0.39128580      -0.61533202       0.00000000
Si       1.78523739       3.00198636      -1.34465509       0.00000000
Si       3.50153943       0.69831972       1.25287187       0.00000000
Si       0.78431463      -0.86747834       3.61349240       0.00000000
Si       2.03481648       2.52516177       2.06100357       0.00000000
Si       2.52995103      -2.92645682      -0.52581420       0.00000000
