10
Lattice="16.28999089631971 0.0 0.0 0.0 16.28999089631971 0.0 0.0 0.0 34.32429715621058" Properties=species:S:1:pos:R:3:initial_magmoms:R:1 pbc="T T T"
Si      -1.62922806       0.48161711      -1.61729314       0.00000000
Si      -1.27902564       0.17742254       1.97502116       0.00000000
Si       0.35492652      -2.34902193      -0.19455023       0.00000000
Si       1.97169275       1.37878886      -0.20862319       0.00000000
Si      -0.39236094      -0.07056828      -3.56101052       0.00000000
Si      -3.10756185      -1.16139571       1.39088995       0.00000000
Si      -3.51582183      -0.84865524      -0.92788924       0.00000000
Si       1.37943720       3.52063064       0.47556340       0.00000000
Si       2.57742076      -2.71859316      -0.74054713       0.00000000
Si      -0.11303631      -0.71440772       3.78521696       0.00000000
