10
Lattice="16.28999089631971 0.0 0.0 0.0 16.28999089631971 0.0 0.0 0.0 34.32429715621058" Properties=species:S:1:pos:R:3:initial_magmoms:R:1 pbc="T T T"
Si       1.34892525       1.35513252      -1.33743669       0.00000000
Si      -1.35664749       1.35387819       1.35625671       0.00000000
Si       1.35774338      -1.35881406       1.35567320       0.00000000
Si      -1.36806678      -1.37090124      -1.36964319       0.00000000
Si      -0.14475294       2.52964152      -2.70647578       0.00000000
Si       2.57869301      -0.06752205      -2.69159275       0.00000000
Si      -2.71120986      -2.71531494       0.00024027       0.00000000
Si       0.00058644       2.71339272       2.71323423       0.00000000
Si      -2.71437012      -0.00138465       2.71350883       0.00000000
Si       2.71518366      -0.00118917       2.71378342       0.00000000
