10
Lattice="16.28999089631971 0.0 0.0 0.0 16.28999089631971 0.0 0.0 0.0 34.32429715621058" Properties=species:S:1:pos:R:3:initial_magmoms:R:1 pbc="T T T"
Si       1.35802471      -1.20627450      -1.50302749       0.00000000
Si       1.72330353       0.85804317       1.42991669       0.00000000
Si      -1.01544362      -1.80690309       1.28273403       0.00000000
Si      -1.35707750       1.50840513      -1.46942398       0.00000000
Si       2.70295155      -2.47423923      -0.00937054       0.00000000
Si       2.59403661       2.69224830      -0.08920890       0.00000000
Si       0.88107632      -3.45872538       1.22668242       0.00000000
Si      -0.00196127      -2.55638970      -2.86755636       0.00000000
Si      -2.76927389      -2.71042794      -0.07462106       0.00000000
Si       3.62231028      -0.61748874       1.29811132       0.00000000
