10
Lattice="16.28999089631971 0.0 0.0 0.0 16.28999089631971 0.0 0.0 0.0 34.32429715621058" Properties=species:S:1:pos:R:3:initial_magmoms:R:1 pbc="T T T"
Si       0.17839179      -0.47682459      -2.29180028       0.00000000
Si      -0.42795459      -2.03848173       1.17210675       0.00000000
Si      -2.22871635       0.86190390       0.35203019       0.00000000
Si       1.59564038       1.40147757       1.29601754       0.00000000
Si      -1.76559165      -0.35188029       2.35457945       0.00000000
Si       0.95884799       1.63028691      -2.99960200       0.00000000
Si       1.00377907      -3.59504010      -0.71404875       0.00000000
Si      -2.29848642       3.18334293       0.40605666       0.00000000
Si       1.67198998       0.68053104       3.56475187       0.00000000
Si      -1.93510539      -0.72759285      -3.45762568       0.00000000
