10
Lattice="16.28999089631971 0.0 0.0 0.0 16.28999089631971 0.0 0.0 0.0 34.32429715621058" Properties=species:S:1:pos:R:3:initial_magmoms:R:1 pbc="T T T"
Si      -1.35936792      -1.35524655      -1.35635968       0.00000000
Si       1.35715248       1.35596331      -1.35793860       0.00000000
Si      -1.35741312       1.35752339       1.35718347       0.00000000
Si       1.35767310      -1.35746199       1.35721779       0.00000000
Si      -2.71270854      -0.00252495      -2.71090018       0.00000000
Si      -2.71417464       2.71472754      -0.00020595       0.00000000
Si       2.71525534      -0.00115659       2.71395504       0.00000000
Si      -2.71471221      -2.71489140      -0.00020595       0.00000000
Si      -0.00032580      -2.71557558       2.71412667       0.00000000
Si       2.71569517       0.00330687      -2.71433261       0.00000000
