10
Lattice="16.28999089631971 0.0 0.0 0.0 16.28999089631971 0.0 0.0 0.0 34.32429715621058" Properties=species:S:1:pos:R:3:initial_magmoms:R:1 pbc="T T T"
Si      -1.35306369       1.35897964       1.35694320       0.00000000
Si      -1.35615879      -1.35715248      -1.35742374       0.00000000
Si       1.35832536       1.35799580      -1.35752671       0.00000000
Si       1.35679410      -1.35928647       1.35838482       0.00000000
Si      -0.00167787      -2.70723510       2.71755910       0.00000000
Si      -2.71378368       0.00021177      -2.71471018       0.00000000
Si       0.00102627      -2.71441899      -2.71491613       0.00000000
Si      -0.00708615       2.69080242       2.73863423       0.00000000
Si      -2.69687466      -0.00791694       2.73279909       0.00000000
Si       0.00156384       2.71519995      -2.71491613       0.00000000
