10
Lattice="16.28999089631971 0.0 0.0 0.0 16.28999089631971 0.0 0.0 0.0 34.32429715621058" Properties=species:S:1:pos:R:3:initial_magmoms:R:1 pbc="T T T"
Si       0.78835455       1.79672184      -1.43039723       0.00000000
Si      -1.82790090      -0.82383417      -1.46619750       0.00000000
Si      -0.41309811       0.54319005       2.42810214       0.00000000
Si       1.62932580      -1.94862609      -0.11951727       0.00000000
Si      -0.26476137      -1.77497469       3.01264525       0.00000000
Si       2.12802786       0.48125547      -2.92127391       0.00000000
Si      -0.60501060      -2.22917247      -2.94303553       0.00000000
Si       3.44155572      -0.96164757      -1.48274182       0.00000000
Si      -2.84965857      -2.65119750      -0.36617181       0.00000000
Si       0.65938662      -3.59401383      -1.51143695       0.00000000
