10
Lattice="16.28999089631971 0.0 0.0 0.0 16.28999089631971 0.0 0.0 0.0 34.32429715621058" Properties=species:S:1:pos:R:3:initial_magmoms:R:1 pbc="T T T"
Si      -0.73678041      -1.53751536       1.64135448       0.00000000
Si       2.28618747      -0.56264031      -0.25715778       0.00000000
Si      -0.24376356       2.36381651       0.26865642       0.00000000
Si      -1.12536207      -0.99608463      -2.09690681       0.00000000
Si       0.04447170      -3.55903920       0.56734662       0.00000000
Si       0.49448295      -0.83399913       3.48999351       0.00000000
Si       1.85707629       3.07199168      -0.55547041       0.00000000
Si       2.26215972      -2.91779964       0.08841944       0.00000000
Si      -3.34964754      -0.20530287      -1.55372450       0.00000000
Si      -0.97702533      -3.31424937      -1.51236370       0.00000000
