10
Lattice="16.28999089631971 0.0 0.0 0.0 16.28999089631971 0.0 0.0 0.0 34.32429715621058" Properties=species:S:1:pos:R:3:initial_magmoms:R:1 pbc="T T T"
Si      -0.89944162      -2.17844541       0.04472458       0.00000000
Si       1.79779861      -0.29699928       1.49729533       0.00000000
Si       1.37634373      -0.20554722      -1.94550225       0.00000000
Si      -1.43173366       1.55655837       1.88615551       0.00000000
Si       0.77076298       1.85217300      -2.82973096       0.00000000
Si      -0.82538728       3.11821551      -1.57775152       0.00000000
Si      -2.51153260      -2.04499773       1.76835445       0.00000000
Si       0.89354234      -1.18526040       3.38719218       0.00000000
Si      -1.00377907       3.59504010       0.71404875       0.00000000
Si       3.65505409      -0.13439250      -1.21998918       0.00000000
