10
Lattice="16.28999089631971 0.0 0.0 0.0 16.28999089631971 0.0 0.0 0.0 34.32429715621058" Properties=species:S:1:pos:R:3:initial_magmoms:R:1 pbc="T T T"
Si       0.14900463       2.09065860       1.18875405       0.00000000
Si       0.36813771      -1.88356383       1.46784506       0.00000000
Si      -2.35055089      -0.54801189      -0.32965073       0.00000000
Si      -0.21765069      -1.00776456      -2.91523284       0.00000000
Si      -2.11665744       0.46776735      -2.78342746       0.00000000
Si      -1.18912113       3.33827712      -0.43777233       0.00000000
Si       0.86050296      -3.50322966      -0.19660968       0.00000000
Si      -3.55025074       0.86996745       1.22596161       0.00000000
Si       3.40360002      -0.49927221      -2.00323575       0.00000000
Si      -2.73073342      -2.88539883       0.51699285       0.00000000
