10
Lattice="16.28999089631971 0.0 0.0 0.0 16.28999089631971 0.0 0.0 0.0 34.32429715621058" Properties=species:S:1:pos:R:3:initial_magmoms:R:1 pbc="T T T"
Si      -1.30790781       1.34350146       1.35886536       0.00000000
Si      -1.35653346      -1.34078103      -1.33954077       0.00000000
Si       1.17822312      -1.50803046       1.35642833       0.00000000
Si       1.35894438       1.37101527      -1.34177185       0.00000000
Si       2.08995813       0.26943660       2.57446102       0.00000000
Si      -2.11771629      -0.55293147       2.61438020       0.00000000
Si       0.55803024       2.17589507       2.61372804       0.00000000
Si       0.00053757      -2.70099603      -2.69648397       0.00000000
Si       2.71423980       0.01534518      -2.69747937       0.00000000
Si      -2.71490932       0.01189170      -2.69761667       0.00000000
