10
Lattice="16.28999089631971 0.0 0.0 0.0 16.28999089631971 0.0 0.0 0.0 34.32429715621058" Properties=species:S:1:pos:R:3:initial_magmoms:R:1 pbc="T T T"
Si       0.87770520       2.03545898      -0.79114117       0.00000000
Si       0.35606682      -0.53993205       2.27027893       0.00000000
Si       0.65989161      -2.01764682      -1.05887083       0.00000000
Si      -2.37937279       0.22071323      -0.05859161       0.00000000
Si      -0.37219392      -3.53206296       0.42538125       0.00000000
Si      -1.82253334      -0.35554554       3.11582414       0.00000000
Si      -0.39765519       3.67196867       0.31859830       0.00000000
Si       0.82398078      -2.83674060       2.32300108       0.00000000
Si      -3.12535727      -1.44212112       1.52760370       0.00000000
Si      -2.61811577       2.82839102      -0.05694404       0.00000000
