10
Lattice="16.28999089631971 0.0 0.0 0.0 16.28999089631971 0.0 0.0 0.0 34.56409401068381" Properties=species:S:1:pos:R:3:initial_magmoms:R:1 pbc="T T T"
Si      -1.69223845       1.61479090       0.01842267       0.00000000
Si      -0.25658216      -0.96195708       2.11698281       0.00000000
Si       2.01222877       1.12229696       0.41978116       0.00000000
Si      -0.39394270      -1.14894999      -2.12697184       0.00000000
Si      -2.36651413      -1.90052172       2.02393622       0.00000000
Si       2.87554990       1.67416144      -1.68596832       0.00000000
Si      -3.63824185       0.45553081      -0.68571744       0.00000000
Si      -0.85970542       3.35991743      -1.39977746       0.00000000
Si      -3.35756515      -1.81283265      -0.10593901       0.00000000
Si       1.41666637       3.13182485       1.80127420       0.00000000
