10
Lattice="16.28999089631971 0.0 0.0 0.0 16.28999089631971 0.0 0.0 0.0 34.56409401068381" Properties=species:S:1:pos:R:3:initial_magmoms:R:1 pbc="T T T"
Si       1.35659862      -1.35305408       1.36030524       0.00000000
Si      -1.35780408      -1.35605651      -1.35643406       0.00000000
Si       1.35700587       1.35820644      -1.35608842       0.00000000
Si      -1.35596331       1.35680550       1.36227540       0.00000000
Si      -2.71439293      -2.71200385       0.00079497       0.00000000
Si      -0.00032580      -2.71390978      -2.71380136       0.00000000
Si       2.71402803      -2.71389349       0.00179733       0.00000000
Si      -2.71504615       0.00152637      -2.71352484       0.00000000
Si       2.71505430       0.00116799      -2.71369767       0.00000000
Si      -0.00055386       2.71605939      -2.71345572       0.00000000
