10
Lattice="16.28999089631971 0.0 0.0 0.0 16.28999089631971 0.0 0.0 0.0 34.56409401068381" Properties=species:S:1:pos:R:3:initial_magmoms:R:1 pbc="T T T"
Si       0.99483030      -1.84339269       1.01701447       0.00000000
Si      -1.50105834      -1.10848563      -1.41598803       0.00000000
Si      -1.34817669       1.06051158       1.77410681       0.00000000
Si       2.36929905       0.67328199      -0.90112100       0.00000000
Si       0.38035521      -2.24131015      -2.81493595       0.00000000
Si       2.59924869      -0.82091826       2.44924763       0.00000000
Si      -0.81906120      -3.01048322       1.97381826       0.00000000
Si       1.69212375       3.22340004       0.65543928       0.00000000
Si      -2.20260185       0.54908703      -2.93414758       0.00000000
Si      -1.75633893       3.15784908      -1.06215520       0.00000000
