10
Lattice="16.28999089631971 0.0 0.0 0.0 16.28999089631971 0.0 0.0 0.0 34.56409401068381" Properties=species:S:1:pos:R:3:initial_magmoms:R:1 pbc="T T T"
Si      -1.41160995       1.29386583       1.47510303       0.00000000
Si       1.28466198      -1.41400458       1.48086833       0.00000000
Si      -1.82099394      -0.99890280      -1.28665400       0.00000000
Si       1.52358741       1.39290903      -1.60827307       0.00000000
Si      -2.87509866       2.50978401       0.04881490       0.00000000
Si       2.51848287      -2.91676197       0.15081705       0.00000000
Si      -2.76093834      -2.72688898       0.04113821       0.00000000
Si      -0.06429663       2.64662001       2.84771310       0.00000000
Si       2.65173507      -0.06299343       2.84899197       0.00000000
Si       2.81030193       2.71837746      -0.08795876       0.00000000
