10
Lattice="16.28999089631971 0.0 0.0 0.0 16.28999089631971 0.0 0.0 0.0 34.56409401068381" Properties=species:S:1:pos:R:3:initial_magmoms:R:1 pbc="T T T"
Si      -1.49265270       1.21011894      -1.36015662       0.00000000
Si       1.33977105       1.37111301       1.37854127       0.00000000
Si      -1.37914398      -1.34508159       1.37681306       0.00000000
Si       1.49545458      -1.27332414      -1.55885879       0.00000000
Si      -0.20830023       2.41836453      -2.90614516       0.00000000
Si       2.68618842      -2.71176372      -0.00847858       0.00000000
Si       2.69461035       2.70920619      -0.00811911       0.00000000
Si      -2.72645730      -2.69783577       0.00420300       0.00000000
Si       2.69099397       0.01296684       2.73666898       0.00000000
Si      -0.02365308      -2.70132183       2.73691092       0.00000000
