10
Lattice="16.28999089631971 0.0 0.0 0.0 16.28999089631971 0.0 0.0 0.0 34.56409401068381" Properties=species:S:1:pos:R:3:initial_magmoms:R:1 pbc="T T T"
Si       1.17467190      -1.37601630      -1.55227433       0.00000000
Si       0.94913685       1.45686357       1.64341990       0.00000000
Si      -0.65622636       1.79048277      -1.49520898       0.00000000
Si      -1.58643423      -0.87855228       1.61296891       0.00000000
Si      -2.76423381       1.18926774       1.81312969       0.00000000
Si      -1.01445975       2.81127933       1.88654387       0.00000000
Si       3.41532882      -0.52015599      -1.22806295       0.00000000
Si      -2.80072341       1.21427289      -2.17498140       0.00000000
Si       1.66133565       0.03756474       3.42509625       0.00000000
Si       0.05028723      -1.10208366      -3.64433642       0.00000000
