10
Lattice="16.28999089631971 0.0 0.0 0.0 16.28999089631971 0.0 0.0 0.0 34.56409401068381" Properties=species:S:1:pos:R:3:initial_magmoms:R:1 pbc="T T T"
Si      -1.51764156       1.58757453      -0.79345379       0.00000000
Si      -1.28435247      -1.20824559       1.54598854       0.00000000
Si       1.37902995       1.44537912       1.48794157       0.00000000
Si      -0.13825323      -1.45751517      -2.19482120       0.00000000
Si      -2.62922229      -2.60413569       0.07621387       0.00000000
Si       0.20830023      -2.41836453       2.90614516       0.00000000
Si      -2.53635300       0.30144645       2.90726504       0.00000000
Si      -1.02602565      -3.57902703      -1.45387030       0.00000000
Si      -2.00298582       1.65814281      -3.04129633       0.00000000
Si       3.03907869       2.60592759       0.34575593       0.00000000
