10
Lattice="16.28999089631971 0.0 0.0 0.0 16.28999089631971 0.0 0.0 0.0 34.56409401068381" Properties=species:S:1:pos:R:3:initial_magmoms:R:1 pbc="T T T"
Si      -1.30349322      -1.53034776       1.29836635       0.00000000
Si       1.15787691      -1.48629960      -1.56312746       0.00000000
Si      -1.56124989       1.20741480      -1.56813926       0.00000000
Si       1.54095255       1.22697909       1.75164014       0.00000000
Si       2.45107485       2.47324554      -0.03808965       0.00000000
Si       2.63717181      -2.74822074      -0.04095847       0.00000000
Si       2.50188336      -0.14432940      -2.96172974       0.00000000
Si      -3.01733154       2.43887364      -0.11423439       0.00000000
Si      -0.21374109       2.57713226      -2.96152236       0.00000000
Si      -2.75906988      -2.80029987      -0.20347894       0.00000000
