10
Lattice="16.28999089631971 0.0 0.0 0.0 16.28999089631971 0.0 0.0 0.0 34.56409401068381" Properties=species:S:1:pos:R:3:initial_magmoms:R:1 pbc="T T T"
Si      -0.91012230      -1.24626645       1.78972979       0.00000000
Si       1.40178708      -1.24892172      -1.54608735       0.00000000
Si      -1.30973229       1.43590227      -1.53869063       0.00000000
Si       0.88270623       2.00652794       1.26172839       0.00000000
Si      -2.45107485      -2.47324554       0.03808965       0.00000000
Si       2.81624778      -2.56251474      -0.17579308       0.00000000
Si      -2.24435475       0.41346531       3.13099021       0.00000000
Si      -2.68408701       2.79222722      -0.14755420       0.00000000
Si       0.05080851      -2.61757494      -2.92364009       0.00000000
Si      -2.66481594       0.10388672      -2.92343271       0.00000000
