10
Lattice="16.28999089631971 0.0 0.0 0.0 16.28999089631971 0.0 0.0 0.0 34.56409401068381" Properties=species:S:1:pos:R:3:initial_magmoms:R:1 pbc="T T T"
Si      -1.36163223      -1.35087757       1.36794391       0.00000000
Si       1.35304740       1.35878148       1.36908453       0.00000000
Si      -1.44536283       1.20431970      -1.46496538       0.00000000
Si       1.37028222      -1.37174832      -1.38813972       0.00000000
Si      -2.21596128      -0.91181646      -2.62082009       0.00000000
Si       2.55551004       0.13905144      -2.80022689       0.00000000
Si      -0.24423597      -2.48095560      -2.89780138       0.00000000
Si      -2.72508894       2.70528030      -0.01575778       0.00000000
Si       2.71116099       2.72538216      -0.01335212       0.00000000
Si       2.71824714      -2.72284993       0.00428249       0.00000000
