10
Lattice="16.28999089631971 0.0 0.0 0.0 16.28999089631971 0.0 0.0 0.0 34.56409401068381" Properties=species:S:1:pos:R:3:initial_magmoms:R:1 pbc="T T T"
Si       1.36008468      -1.35532800      -1.36134217       0.00000000
Si      -1.35645201       1.36052451      -1.36040894       0.00000000
Si      -1.35259128      -1.35343836       1.37254094       0.00000000
Si       1.35083196       1.37450133       1.37444197       0.00000000
Si      -2.59652826       0.15688899       2.76091224       0.00000000
Si       2.71163340      -2.71282257      -0.00556482       0.00000000
Si      -2.71599912      -2.71262709      -0.00103692       0.00000000
Si       2.71282257       2.71710684      -0.00321446       0.00000000
Si       0.00013032      -2.71283886      -2.71819100       0.00000000
Si      -2.71722087       2.71425609      -0.00086410       0.00000000
