10
Lattice="16.28999089631971 0.0 0.0 0.0 16.28999089631971 0.0 0.0 0.0 34.56409401068381" Properties=species:S:1:pos:R:3:initial_magmoms:R:1 pbc="T T T"
Si      -0.50067315      -2.24241624      -0.26054429       0.00000000
Si       2.19139596       0.65036196       0.58824664       0.00000000
Si      -0.23089446       0.55376226      -2.29115138       0.00000000
Si      -1.36534635       1.06375329       1.66319057       0.00000000
Si      -0.86682348       2.78883171      -1.96493528       0.00000000
Si      -2.65277763      -1.90855269      -1.39117100       0.00000000
Si       0.00894321       2.94334236       2.07045952       0.00000000
Si       1.44958194      -2.94197400      -1.48812334       0.00000000
Si      -2.59286301       0.14307507      -2.55394233       0.00000000
Si      -0.56483946      -3.19466448       1.91015116       0.00000000
