10
Lattice="16.28999089631971 0.0 0.0 0.0 16.28999089631971 0.0 0.0 0.0 34.56409401068381" Properties=species:S:1:pos:R:3:initial_magmoms:R:1 pbc="T T T"
Si       1.35549090      -1.35624024       1.36009786       0.00000000
Si      -1.34731332      -1.35275418      -1.37261007       0.00000000
Si      -1.35632169       1.36049193       1.35909550       0.00000000
Si       1.37914398       1.34508159      -1.37681306       0.00000000
Si      -0.11350872       2.55520053      -2.73696968       0.00000000
Si       2.71603170      -2.70961344       0.00127887       0.00000000
Si      -2.71327380      -2.71448415      -0.00003456       0.00000000
Si      -0.00034209      -2.71238274       2.71708495       0.00000000
Si      -2.71474805       0.00237834       2.71711951       0.00000000
Si       2.71526607       0.00252495       2.71677387       0.00000000
