10
Lattice="16.28999089631971 0.0 0.0 0.0 16.28999089631971 0.0 0.0 0.0 34.56409401068381" Properties=species:S:1:pos:R:3:initial_magmoms:R:1 pbc="T T T"
Si      -1.88384076       1.19088045      -0.57670223       0.00000000
Si       1.56845007       1.70906535       0.51922211       0.00000000
Si      -0.08252514      -1.43633817       1.91060049       0.00000000
Si       0.33262551      -1.45380105      -1.87060981       0.00000000
Si       2.91204927       0.27911286       1.86528694       0.00000000
Si       2.66321952      -1.27044081      -1.97896831       0.00000000
Si       1.30722363      -3.17951478       1.10508383       0.00000000
Si       3.15128421      -1.75441671       0.41995398       0.00000000
Si      -2.93340546       0.07121988      -2.33297396       0.00000000
Si       1.24297587      -0.19955250       3.53774069       0.00000000
