10
Lattice="16.28999089631971 0.0 0.0 0.0 16.28999089631971 0.0 0.0 0.0 34.56409401068381" Properties=species:S:1:pos:R:3:initial_magmoms:R:1 pbc="T T T"
Si      -1.65700251       1.56209697       0.72342689       0.00000000
Si       1.66907340       0.47866536      -1.67245375       0.00000000
Si      -1.32550101      -1.23678567      -1.62714020       0.00000000
Si       1.11609306       0.29408337       2.62659610       0.00000000
Si      -0.54172395       2.04247278       2.79166076       0.00000000
Si       0.32547420       1.90861785      -3.01851858       0.00000000
Si      -1.24297587       0.19955250      -3.53774069       0.00000000
Si       0.06424776      -2.97996228      -2.43265686       0.00000000
Si      -3.02643765      -0.61248771       2.48972221       0.00000000
Si       1.90830834      -1.55486421      -3.11778671       0.00000000
