10
Lattice="16.28999089631971 0.0 0.0 0.0 16.28999089631971 0.0 0.0 0.0 34.56409401068381" Properties=species:S:1:pos:R:3:initial_magmoms:R:1 pbc="T T T"
Si       1.65700251      -1.56209697      -0.72342689       0.00000000
Si       1.11527856       0.48037581       2.06823387       0.00000000
Si      -0.91351062       1.67391153      -1.57384234       0.00000000
Si      -1.36943514      -2.17458468       1.76629532       0.00000000
Si      -0.69970437      -0.41389632       3.30227064       0.00000000
Si      -3.02772456      -1.32139593      -1.37305940       0.00000000
Si       2.77309557      -1.26801360       1.90316921       0.00000000
Si       0.33150150      -2.79888264      -2.35056709       0.00000000
Si       0.94177377       2.36574783      -2.87735874       0.00000000
Si      -2.54695779       0.46586142      -2.85036417       0.00000000
