10
Lattice="16.28999089631971 0.0 0.0 0.0 16.28999089631971 0.0 0.0 0.0 34.56409401068381" Properties=species:S:1:pos:R:3:initial_magmoms:R:1 pbc="T T T"
Si       1.35653346       1.35654975      -1.35695253       0.00000000
Si       1.35459495      -1.35738054       1.35805858       0.00000000
Si      -1.35847197       1.35391077       1.35951027       0.00000000
Si      -1.35829278      -1.35765747      -1.35702165       0.00000000
Si       2.71046052       0.00759114       2.71438895       0.00000000
Si       2.71296918       2.71340901       0.00069128       0.00000000
Si      -0.00086337       2.71410948      -2.71407787       0.00000000
Si       2.71415835      -0.00057015      -2.71431982       0.00000000
Si      -2.71467963      -2.71396287       0.00086410       0.00000000
Si       2.71319724      -2.71559187       0.00055303       0.00000000
