10
Lattice="16.28999089631971 0.0 0.0 0.0 16.28999089631971 0.0 0.0 0.0 34.56409401068381" Properties=species:S:1:pos:R:3:initial_magmoms:R:1 pbc="T T T"
Si       0.81741591      -1.47865959      -1.71714515       0.00000000
Si      -0.84918141      -0.42660252       2.31724729       0.00000000
Si      -1.75334157       1.25490015      -1.30424225       0.00000000
Si       2.08217151       1.06453521       1.12291891       0.00000000
Si       2.32616313      -2.58346368      -0.28971640       0.00000000
Si      -2.16681435       1.51040880       2.44651707       0.00000000
Si      -2.51328636      -2.03551695       1.95460061       0.00000000
Si       1.97302851      -0.06134814      -3.26976512       0.00000000
Si      -0.28336455       2.83685693       2.77439225       0.00000000
Si      -0.84321927       2.50116660      -3.09397204       0.00000000
