10
Lattice="16.28999089631971 0.0 0.0 0.0 16.28999089631971 0.0 0.0 0.0 34.56409401068381" Properties=species:S:1:pos:R:3:initial_magmoms:R:1 pbc="T T T"
Si       1.74685815       1.38753333      -0.67133877       0.00000000
Si      -1.68557517      -0.89303409      -1.33790770       0.00000000
Si      -1.58210109       0.35323236       1.74244608       0.00000000
Si       1.23650874      -1.83058875       0.90882880       0.00000000
Si      -3.02682861      -1.10796435       0.63476994       0.00000000
Si       2.73790917       1.29984426       1.45853645       0.00000000
Si       3.11202531      -0.95871537       1.99822052       0.00000000
Si      -0.80428617      -0.62696952       3.71647172       0.00000000
Si      -0.80309700      -2.39205618      -2.91347824       0.00000000
Si       2.90753694       0.57293559      -2.51343319       0.00000000
