10
Lattice="16.28999089631971 0.0 0.0 0.0 16.28999089631971 0.0 0.0 0.0 34.56409401068381" Properties=species:S:1:pos:R:3:initial_magmoms:R:1 pbc="T T T"
Si      -1.35656604      -1.35704008       1.35646863       0.00000000
Si       1.35798327       1.35759231       1.35646863       0.00000000
Si      -1.35865116       1.35698958      -1.36116935       0.00000000
Si       1.36011726      -1.35711827      -1.35968309       0.00000000
Si       0.00055386      -2.71428345       2.71335202       0.00000000
Si      -2.71485882       0.00058644       2.71345572       0.00000000
Si       0.00052128       2.71542897       2.71345572       0.00000000
Si       2.71541464       0.00003258       2.71359397       0.00000000
Si       2.71573848      -2.71458010      -0.00124431       0.00000000
Si      -2.71458189       2.71603170      -0.00010369       0.00000000
