10
Lattice="16.28999089631971 0.0 0.0 0.0 16.28999089631971 0.0 0.0 0.0 34.56409401068381" Properties=species:S:1:pos:R:3:initial_magmoms:R:1 pbc="T T T"
Si       0.60585835       0.62320653       2.24618347       0.00000000
Si       0.19184733       2.14816230      -1.19934017       0.00000000
Si      -1.76347395      -1.87308447       0.42748895       0.00000000
Si       2.55496337      -0.46846782      -1.04936648       0.00000000
Si      -1.32522408      -1.06862400      -2.69949181       0.00000000
Si       1.85341986       1.18910484      -2.56752603       0.00000000
Si       2.70784502       1.70052939       2.14072836       0.00000000
Si       1.38428577      -1.28786459       3.36644095       0.00000000
Si      -1.30282533       1.61787393       3.33312114       0.00000000
Si      -3.50034633      -0.71188929       1.63270502       0.00000000
