10
Lattice="16.28999089631971 0.0 0.0 0.0 16.28999089631971 0.0 0.0 0.0 34.56409401068381" Properties=species:S:1:pos:R:3:initial_magmoms:R:1 pbc="T T T"
Si      -1.36197432       1.34584722       1.35176791       0.00000000
Si       1.35035955       1.35907470      -1.36186063       0.00000000
Si      -1.36207206      -1.35856971      -1.36040894       0.00000000
Si       1.33121880      -1.38008880       1.41349941       0.00000000
Si      -2.65479596      -0.02982699       2.74967891       0.00000000
Si       2.70865233       0.00206883      -2.72085244       0.00000000
Si       2.71376739       2.71826343       0.01171723       0.00000000
Si      -2.72079001       2.71318095      -0.01009272       0.00000000
Si      -0.00610875      -2.71537521      -2.72268433       0.00000000
Si      -0.00579924       2.71652040      -2.72168198       0.00000000
