10
Lattice="16.28999089631971 0.0 0.0 0.0 16.28999089631971 0.0 0.0 0.0 34.56409401068381" Properties=species:S:1:pos:R:3:initial_magmoms:R:1 pbc="T T T"
Si       0.28067670      -2.26836346       0.57977844       0.00000000
Si      -1.72208106       0.98424848       1.27869937       0.00000000
Si       0.16676073       0.51500525      -2.29730379       0.00000000
Si       1.94600340       1.15926009       0.70414012       0.00000000
Si      -0.27443763      -2.20276363      -2.60412943       0.00000000
Si       0.79565247       2.83160290      -2.03641386       0.00000000
Si       1.44135549      -3.08296120      -1.26231598       0.00000000
Si       1.09869534       2.29033507       2.60374922       0.00000000
Si      -0.92677068       3.14700988       1.58479916       0.00000000
Si       3.63824185      -0.45553081       0.68571744       0.00000000
