10
Lattice="16.28999089631971 0.0 0.0 0.0 16.28999089631971 0.0 0.0 0.0 34.56409401068381" Properties=species:S:1:pos:R:3:initial_magmoms:R:1 pbc="T T T"
Si      -1.35661583       1.35536058       1.35432565       0.00000000
Si      -1.35553685      -1.35806472      -1.35671058       0.00000000
Si       1.35895253       1.35726651      -1.35650319       0.00000000
Si       1.36116796      -1.35956340       1.36179150       0.00000000
Si      -2.70228198      -0.00535941       2.70118546       0.00000000
Si       0.00245002       2.71218726       2.71210772       0.00000000
Si      -2.71296822      -0.00050499      -2.71383592       0.00000000
Si      -2.71262613       2.71420722       0.00051846       0.00000000
Si       0.00217146       2.71445157      -2.71390505       0.00000000
Si       0.00208512      -2.71484253      -2.71400874       0.00000000
