10
Lattice="16.28999089631971 0.0 0.0 0.0 16.28999089631971 0.0 0.0 0.0 34.56409401068381" Properties=species:S:1:pos:R:3:initial_magmoms:R:1 pbc="T T T"
Si       1.36955473      -1.32312267      -1.33168616       0.00000000
Si      -1.35373158       1.40006034      -1.33376001       0.00000000
Si      -1.27936773      -1.53352431       1.34285037       0.00000000
Si       1.83043304       0.77335146       2.02542248       0.00000000
Si      -0.20631285       2.22628914       2.77674261       0.00000000
Si       0.01048888      -2.67994935      -2.68946822       0.00000000
Si      -2.70086571       0.03477915      -2.68680679       0.00000000
Si       2.72809349       0.03481173      -2.68452555       0.00000000
Si       2.72837042      -2.69045640       0.03017447       0.00000000
Si       0.01272192       2.75113665      -2.68417991       0.00000000
