10
Lattice="16.28999089631971 0.0 0.0 0.0 16.28999089631971 0.0 0.0 0.0 34.56409401068381" Properties=species:S:1:pos:R:3:initial_magmoms:R:1 pbc="T T T"
Si       1.66157253      -0.95905746      -1.36818586       0.00000000
Si      -1.05334398       1.57354884      -1.45342097       0.00000000
Si      -0.19184733      -2.14816230       1.19934017       0.00000000
Si       2.10783545       1.64970459       0.50380652       0.00000000
Si       2.36311604      -2.61663012       0.14997369       0.00000000
Si       0.22895595      -2.30790204      -2.78610948       0.00000000
Si       1.67266113       1.65358161       2.87410972       0.00000000
Si      -3.18687786      -1.43470917      -1.32104041       0.00000000
Si      -2.64862368       2.66367564      -0.14859112       0.00000000
Si      -2.52436356       0.32332392      -2.79751564       0.00000000
