10
Lattice="16.28999089631971 0.0 0.0 0.0 16.28999089631971 0.0 0.0 0.0 34.56409401068381" Properties=species:S:1:pos:R:3:initial_magmoms:R:1 pbc="T T T"
Si       1.46515518       1.76796999       0.44656834       0.00000000
Si       1.53073872      -1.14414444      -1.38764546       0.00000000
Si      -0.19168443      -0.82873746       2.23356757       0.00000000
Si      -2.10797487       0.12828375      -1.17390098       0.00000000
Si       3.51362268      -1.07136072      -0.06529161       0.00000000
Si       1.85803740       0.39236094      -3.15093370       0.00000000
Si       2.18398401       2.34936009      -1.80991523       0.00000000
Si      -0.98699481      -2.99149886       1.92746778       0.00000000
Si      -2.69500131      -2.11727646      -1.44156547       0.00000000
Si       3.42099774       0.84996333       1.29777876       0.00000000
