10
Lattice="16.28999089631971 0.0 0.0 0.0 16.28999089631971 0.0 0.0 0.0 34.56409401068381" Properties=species:S:1:pos:R:3:initial_magmoms:R:1 pbc="T T T"
Si       2.00650446      -1.23070950       0.52890006       0.00000000
Si      -1.84406058      -1.42509807       0.68512985       0.00000000
Si      -0.48806469       0.48397590      -2.39892229       0.00000000
Si      -0.23923494       2.03352957       1.44533296       0.00000000
Si      -3.23380935       0.31807854       1.49064652       0.00000000
Si      -3.15128421       1.75441671      -0.41995398       0.00000000
Si      -2.81865870       0.30061566      -2.29056379       0.00000000
Si      -2.91990105      -1.91886426      -1.37931551       0.00000000
Si      -1.58283414       3.46348206       0.09926813       0.00000000
Si       2.51435548      -2.72253141      -1.26452809       0.00000000
