10
Lattice="16.28999089631971 0.0 0.0 0.0 16.28999089631971 0.0 0.0 0.0 34.56409401068381" Properties=species:S:1:pos:R:3:initial_magmoms:R:1 pbc="T T T"
Si       1.92162446       0.93038706       0.91093721       0.00000000
Si      -1.29424050       1.63339830      -1.18938570       0.00000000
Si      -0.99031797      -1.81006335       1.26805363       0.00000000
Si       2.03674589      -1.45293768      -0.75132013       0.00000000
Si       0.79560753       1.93157046       2.70291366       0.00000000
Si       0.20631285      -2.22628914      -2.77674261       0.00000000
Si      -2.66833458      -2.66968665      -0.12906240       0.00000000
Si      -2.55801870       0.46677366      -2.76868917       0.00000000
Si       2.65615685      -1.55730771       2.34800935       0.00000000
Si      -3.09154878       2.53340451       0.08253910       0.00000000
