10
Lattice="16.28999089631971 0.0 0.0 0.0 16.28999089631971 0.0 0.0 0.0 34.56409401068381" Properties=species:S:1:pos:R:3:initial_magmoms:R:1 pbc="T T T"
Si       1.19079900       1.46495744      -1.43824732       0.00000000
Si      -1.50931737      -1.21446837      -1.43651911       0.00000000
Si      -0.35958546       1.67504761       1.74372495       0.00000000
Si       0.56091357      -1.97363124       1.35909550       0.00000000
Si      -1.40017437      -0.08858502       2.95616492       0.00000000
Si       2.35822185      -2.87363745       0.08717069       0.00000000
Si      -2.66492997      -2.63177982       0.11610086       0.00000000
Si       2.52112185       0.08529444      -2.80767749       0.00000000
Si       0.91900035      -1.09009422       3.51994017       0.00000000
Si      -0.20582415      -2.61584820      -2.82948745       0.00000000
