10
Lattice="16.28999089631971 0.0 0.0 0.0 16.28999089631971 0.0 0.0 0.0 34.56409401068381" Properties=species:S:1:pos:R:3:initial_magmoms:R:1 pbc="T T T"
Si       2.14449705       0.57620988       0.67977242       0.00000000
Si      -0.59049621       2.03152590      -1.06053069       0.00000000
Si      -1.31431467       0.11235213       2.03762361       0.00000000
Si       0.45341586      -2.04840234      -1.29014009       0.00000000
Si      -2.29895720       0.98129331      -2.24749690       0.00000000
Si       1.78137666       2.55782322       1.90441352       0.00000000
Si       1.42444647       2.55274074      -2.30919385       0.00000000
Si       2.80072341      -1.21427289       2.17498140       0.00000000
Si       3.27380130       1.31844744      -1.29622338       0.00000000
Si      -1.57660159       3.45162294       0.53764478       0.00000000
