10
Lattice="16.28999089631971 0.0 0.0 0.0 16.28999089631971 0.0 0.0 0.0 34.56409401068381" Properties=species:S:1:pos:R:3:initial_magmoms:R:1 pbc="T T T"
Si       1.35719320       1.35684297      -1.35605386       0.00000000
Si      -1.35762197       1.35677781       1.35729817       0.00000000
Si       1.35724208      -1.35758289       1.35709078       0.00000000
Si      -1.35729813      -1.35783487      -1.35754012       0.00000000
Si       2.70931207       0.00233924      -2.71826013       0.00000000
Si       0.00065323      -2.71353023       2.71431982       0.00000000
Si       2.71504615      -0.00152637       2.71352484       0.00000000
Si      -0.00208512       2.71484253       2.71400874       0.00000000
Si      -2.71291935      -0.00037304      -2.71597890       0.00000000
Si       2.71449229       2.71453302       0.00006913       0.00000000
