10
Lattice="16.28999089631971 0.0 0.0 0.0 16.28999089631971 0.0 0.0 0.0 34.56409401068381" Properties=species:S:1:pos:R:3:initial_magmoms:R:1 pbc="T T T"
Si      -1.72914182      -0.78094260       1.53009942       0.00000000
Si       0.85654938       1.78942392       1.51672310       0.00000000
Si       1.91065410      -1.71926289       0.18125421       0.00000000
Si      -0.95137577      -0.79913853      -2.98378165       0.00000000
Si       1.47136167       2.14777134      -2.01094011       0.00000000
Si       1.36930482      -1.50578244      -2.99729622       0.00000000
Si      -0.41035229      -2.15220222       2.94925352       0.00000000
Si       2.32003809       0.57350574       2.94301124       0.00000000
Si       2.20897287       3.08557035       0.10887696       0.00000000
Si      -3.27670811      -2.00665107       0.14586056       0.00000000
