10
Lattice="16.28999089631971 0.0 0.0 0.0 16.28999089631971 0.0 0.0 0.0 34.56409401068381" Properties=species:S:1:pos:R:3:initial_magmoms:R:1 pbc="T T T"
Si      -1.35242349      -1.29614643       1.40784615       0.00000000
Si       1.60319664      -0.97489134      -1.53008417       0.00000000
Si      -0.73761120      -0.93779901      -2.11981707       0.00000000
Si       1.34486982       1.39589010       1.46977467       0.00000000
Si       2.49096906       1.14662052      -2.27103507       0.00000000
Si       2.62922229       2.60413569      -0.07621387       0.00000000
Si       0.11106522      -2.51206461       2.83413428       0.00000000
Si      -2.20897287      -3.08557035      -0.10887696       0.00000000
Si      -2.62026035       0.19533339       2.82069921       0.00000000
Si       3.04626258      -2.41302141      -0.24924182       0.00000000
