10
Lattice="16.28999089631971 0.0 0.0 0.0 16.28999089631971 0.0 0.0 0.0 34.56409401068381" Properties=species:S:1:pos:R:3:initial_magmoms:R:1 pbc="T T T"
Si       1.28435247       1.20824559      -1.54598854       0.00000000
Si       1.49265270      -1.21011894       1.36015662       0.00000000
Si      -1.25200053       1.50969204       1.36127650       0.00000000
Si      -1.34486982      -1.39589010      -1.46977467       0.00000000
Si      -0.23328909       2.79582012      -2.33944233       0.00000000
Si       0.11350872      -2.55520053       2.73696968       0.00000000
Si       2.66338242       2.65362471      -0.05804697       0.00000000
Si      -2.60073271       0.16589736       2.73880158       0.00000000
Si      -2.69729331      -2.69203653      -0.06192852       0.00000000
Si       0.25832682      -2.37078144      -2.99985884       0.00000000
