10
Lattice="16.28999089631971 0.0 0.0 0.0 16.28999089631971 0.0 0.0 0.0 34.56409401068381" Properties=species:S:1:pos:R:3:initial_magmoms:R:1 pbc="T T T"
Si       1.20264183      -1.41750693      -1.40174762       0.00000000
Si      -1.52613517       1.30388418      -1.36714894       0.00000000
Si       1.45557666       1.26995211       1.50184529       0.00000000
Si      -1.06507278      -2.03447439       1.95135158       0.00000000
Si       2.66466933      -2.61553869       0.00442421       0.00000000
Si       2.54397672      -0.05817159      -2.75735214       0.00000000
Si      -0.24356808       2.57952150       2.76381563       0.00000000
Si      -1.18019421       0.34885035       3.61360892       0.00000000
Si      -0.16736346       2.65759947      -2.75908035       0.00000000
Si      -0.16741233      -2.77301412      -2.75859645       0.00000000
