10
Lattice="16.28999089631971 0.0 0.0 0.0 16.28999089631971 0.0 0.0 0.0 34.56409401068381" Properties=species:S:1:pos:R:3:initial_magmoms:R:1 pbc="T T T"
Si       1.35629928       1.35006633       1.35657923       0.00000000
Si       1.30653985      -1.37070576      -1.39424029       0.00000000
Si      -1.36001491      -1.36098063       1.36013934       0.00000000
Si      -1.30392844       1.38481290      -1.42809930       0.00000000
Si      -0.69381907      -2.12022495      -2.41403890       0.00000000
Si      -2.26681405      -0.40197204      -2.75456078       0.00000000
Si       2.55847033       0.20269647      -2.58119925       0.00000000
Si      -2.70876175       2.69895796      -0.00977819       0.00000000
Si       0.00042815       2.70901969       2.71494889       0.00000000
Si       2.71413757      -0.00545715       2.71529453       0.00000000
