10
Lattice="16.28999089631971 0.0 0.0 0.0 16.28999089631971 0.0 0.0 0.0 34.31052061344573" Properties=species:S:1:pos:R:3:initial_magmoms:R:1 pbc="T T T"
Si      -1.31621571       1.37482713       1.34385121       0.00000000
Si       1.40753745      -1.36832742       1.32268846       0.00000000
Si       1.17480222       1.59883092      -1.32006131       0.00000000
Si      -1.76368572      -0.77283018      -1.48249465       0.00000000
Si      -2.53501233       2.60291394      -0.26123702       0.00000000
Si      -2.65197127      -2.65135877      -0.03233082       0.00000000
Si      -2.67177177       0.01560582       2.69932339       0.00000000
Si      -0.70325559       3.38040306      -1.58717610       0.00000000
Si       0.04764825      -2.70327011       2.69812252       0.00000000
Si       0.04497669       2.72754873       2.69976943       0.00000000
