10
Lattice="16.28999089631971 0.0 0.0 0.0 16.28999089631971 0.0 0.0 0.0 34.31052061344573" Properties=species:S:1:pos:R:3:initial_magmoms:R:1 pbc="T T T"
Si      -1.67885880       1.43221680      -0.83450095       0.00000000
Si      -1.52663853      -1.09623555       1.53869188       0.00000000
Si       1.30409595       1.57275063       1.43269976       0.00000000
Si      -0.38732733      -1.47641157      -2.10196660       0.00000000
Si      -0.54975492       2.53869876      -2.56553630       0.00000000
Si      -0.01542663      -2.24497377       2.95798167       0.00000000
Si       1.40535459      -3.07125144      -1.73594176       0.00000000
Si      -2.77803863      -2.06464347      -1.58569591       0.00000000
Si       2.69604387       0.46235907       2.97399097       0.00000000
Si      -3.66929711       0.10181250      -1.69209289       0.00000000
