10
Lattice="16.28999089631971 0.0 0.0 0.0 16.28999089631971 0.0 0.0 0.0 34.31052061344573" Properties=species:S:1:pos:R:3:initial_magmoms:R:1 pbc="T T T"
Si       1.12910388       1.10648196      -1.73103535       0.00000000
Si      -0.90867477       1.98028963       0.87032115       0.00000000
Si       1.67885880      -1.43221680       0.83450095       0.00000000
Si      -1.99043830      -1.33040430      -0.85759194       0.00000000
Si      -2.23301269       0.59528547       2.45461860       0.00000000
Si       1.29153147      -2.90862837      -1.26746565       0.00000000
Si       0.15222028      -2.52845235       2.37319283       0.00000000
Si      -0.68599145       1.20532968      -3.23380269       0.00000000
Si       0.32344935       3.35736967      -1.35746220       0.00000000
Si      -1.09917982      -3.49686027      -0.75119496       0.00000000
