10
Lattice="16.28999089631971 0.0 0.0 0.0 16.28999089631971 0.0 0.0 0.0 34.31052061344573" Properties=species:S:1:pos:R:3:initial_magmoms:R:1 pbc="T T T"
Si      -1.62569313      -0.60295221      -1.67315347       0.00000000
Si       1.83972744      -1.58087349      -0.08354616       0.00000000
Si      -1.25695269      -0.07238299       2.19999181       0.00000000
Si       1.09361286       2.22340255       0.59621425       0.00000000
Si       0.77659317       1.81271536      -1.68667183       0.00000000
Si      -2.65614966      -2.29554837      -0.41742203       0.00000000
Si      -3.39484089      -0.46700710       0.93918241       0.00000000
Si      -0.32149944      -1.93957929      -3.02639547       0.00000000
Si       0.85033800      -3.26672559      -1.44773323       0.00000000
Si       2.01507300      -2.21590656       2.22263677       0.00000000
