10
Lattice="16.28999089631971 0.0 0.0 0.0 16.28999089631971 0.0 0.0 0.0 34.31052061344573" Properties=species:S:1:pos:R:3:initial_magmoms:R:1 pbc="T T T"
Si       1.90641870      -0.65212128       1.19208539       0.00000000
Si      -0.84082464       1.89995157       1.08771273       0.00000000
Si       0.88865208       0.69939486      -2.09297724       0.00000000
Si      -1.49666004      -1.75420494      -0.58722489       0.00000000
Si       2.20346685      -2.90672896       0.45797709       0.00000000
Si       0.78698619       3.02014971      -1.97196396       0.00000000
Si      -3.07631763       1.43879796       1.53025007       0.00000000
Si      -0.81327825       3.76606881      -0.35892256       0.00000000
Si       3.24039051       0.26116128      -2.17202872       0.00000000
Si       3.56926932       1.07460243       1.19122763       0.00000000
