10
Lattice="16.28999089631971 0.0 0.0 0.0 16.28999089631971 0.0 0.0 0.0 34.31052061344573" Properties=species:S:1:pos:R:3:initial_magmoms:R:1 pbc="T T T"
Si      -1.43545851      -1.14031629      -1.43713127       0.00000000
Si       0.43759827       1.82589723      -1.39444896       0.00000000
Si       1.57833810      -1.65151767       0.67152588       0.00000000
Si      -0.17283690       0.49388022       2.34080227       0.00000000
Si       0.01115865       3.23037216       0.36952451       0.00000000
Si       1.08506061      -1.37024964       2.93327667       0.00000000
Si       1.16129781       2.41197885       2.26302027       0.00000000
Si       0.65938662      -3.47870411      -0.40380074       0.00000000
Si      -0.31104126      -0.90873765      -3.50334629       0.00000000
Si      -1.68735078      -3.20748878      -0.33692950       0.00000000
