10
Lattice="16.28999089631971 0.0 0.0 0.0 16.28999089631971 0.0 0.0 0.0 34.31052061344573" Properties=species:S:1:pos:R:3:initial_magmoms:R:1 pbc="T T T"
Si      -1.25789751       1.86412986      -0.59247440       0.00000000
Si       0.49327749      -0.28126803      -2.26175078       0.00000000
Si      -1.43402499      -1.75819957       0.58255866       0.00000000
Si       2.04437871       0.58766175       1.03851142       0.00000000
Si      -1.08506061       1.37024964      -2.93327667       0.00000000
Si       2.90258478      -1.44634349       1.69459756       0.00000000
Si       2.59561602      -1.21872658      -2.27314188       0.00000000
Si      -2.36620395      -1.03914887       2.60722361       0.00000000
Si       0.07623720       3.78222849      -0.67025639       0.00000000
Si      -3.27564207      -1.86916801      -0.96913551       0.00000000
