10
Lattice="16.28999089631971 0.0 0.0 0.0 16.28999089631971 0.0 0.0 0.0 34.31052061344573" Properties=species:S:1:pos:R:3:initial_magmoms:R:1 pbc="T T T"
Si       1.35922131      -1.35713619      -1.36274602       0.00000000
Si      -1.35700587       1.35964485      -1.36315775       0.00000000
Si       1.33618725       1.37352393       1.37767110       0.00000000
Si      -1.34970795      -1.35511623       1.39571845       0.00000000
Si      -2.71630863      -2.70977634      -0.00120087       0.00000000
Si       2.71472850      -2.71528236      -0.00319088       0.00000000
Si      -2.71461447       2.71642266      -0.00734246       0.00000000
Si       2.71368594       2.71919196      -0.00229881       0.00000000
Si      -2.71388142       0.00066789      -2.72058563       0.00000000
Si       0.00162900      -2.71419093      -2.72048270       0.00000000
