10
Lattice="16.28999089631971 0.0 0.0 0.0 16.28999089631971 0.0 0.0 0.0 34.31052061344573" Properties=species:S:1:pos:R:3:initial_magmoms:R:1 pbc="T T T"
Si       0.75341250       1.80944433      -1.23284632       0.00000000
Si       1.49027436      -1.90332360       0.14678049       0.00000000
Si      -1.98410571      -1.05031404      -1.10860785       0.00000000
Si       1.81146429       1.25617077       1.73515262       0.00000000
Si       2.08018413       0.39610764      -2.62087920       0.00000000
Si      -0.64612656      -2.34802431      -2.61254174       0.00000000
Si       1.25244036      -2.46676212       2.43779816       0.00000000
Si       3.31003026      -1.11086397      -1.28201332       0.00000000
Si       0.71742789      -3.71074797      -1.19421265       0.00000000
Si      -0.65368512       3.10814829      -2.60403273       0.00000000
