10
Lattice="16.28999089631971 0.0 0.0 0.0 16.28999089631971 0.0 0.0 0.0 34.31052061344573" Properties=species:S:1:pos:R:3:initial_magmoms:R:1 pbc="T T T"
Si      -1.36210464      -1.81931607       0.62640752       0.00000000
Si       2.15257689      -0.54354843      -0.88291312       0.00000000
Si      -0.79583166       1.29992571      -1.87661497       0.00000000
Si       0.79255737       0.99864216       2.08192924       0.00000000
Si       2.50387074      -2.40707556       0.43780249       0.00000000
Si       3.40226424       1.35969372      -0.37206349       0.00000000
Si      -1.00532106      -3.46222773      -1.02049838       0.00000000
Si      -0.89117703       2.40588639       2.84818653       0.00000000
Si      -0.58788981      -2.80091889       2.60742947       0.00000000
Si       0.63285021       3.19787361      -2.18472362       0.00000000
