10
Lattice="16.28999089631971 0.0 0.0 0.0 16.28999089631971 0.0 0.0 0.0 34.31052061344573" Properties=species:S:1:pos:R:3:initial_magmoms:R:1 pbc="T T T"
Si      -0.92437605      -1.90470825      -0.84029943       0.00000000
Si      -1.03190634       2.02163787      -0.49173866       0.00000000
Si       1.99254393       0.55045539      -1.19441851       0.00000000
Si      -0.65570508      -0.17581797       2.29266458       0.00000000
Si       2.21156298       2.47433697       0.16513663       0.00000000
Si       0.11919393       3.30831981       1.20714772       0.00000000
Si       2.51848287      -2.33087094       0.83209921       0.00000000
Si      -0.25956486      -3.64405671       0.66692827       0.00000000
Si      -3.21396813       1.83006747       0.39014515       0.00000000
Si      -0.98824914       2.04923313       2.97156723       0.00000000
