10
Lattice="16.28999089631971 0.0 0.0 0.0 16.28999089631971 0.0 0.0 0.0 34.31052061344573" Properties=species:S:1:pos:R:3:initial_magmoms:R:1 pbc="T T T"
Si       1.52233308      -1.19105964       1.28046934       0.00000000
Si      -0.33254406       2.22505110       0.67890265       0.00000000
Si      -2.04587739      -1.08403434       0.55977646       0.00000000
Si       0.65570508       0.17581797      -2.29266458       0.00000000
Si      -3.08701690      -0.22108788      -1.38679771       0.00000000
Si      -0.37620126       2.19745584      -2.78440324       0.00000000
Si      -0.26867097      -1.72889028      -3.13296401       0.00000000
Si       1.00831842       2.22684300       2.63329962       0.00000000
Si       1.38396582      -0.07780104       3.37090760       0.00000000
Si       3.61862802      -0.69338385       0.33459638       0.00000000
