10
Lattice="16.28999089631971 0.0 0.0 0.0 16.28999089631971 0.0 0.0 0.0 34.31052061344573" Properties=species:S:1:pos:R:3:initial_magmoms:R:1 pbc="T T T"
Si      -1.79268192       1.59483987      -0.36602484       0.00000000
Si       1.73444517       0.85902057      -1.53989134       0.00000000
Si       1.62303786       0.08532702       1.87925689       0.00000000
Si      -1.12270680      -2.20455828      -0.59127353       0.00000000
Si      -0.80718579      -2.57909796       1.79193656       0.00000000
Si      -0.09907578      -0.74575620       3.24544909       0.00000000
Si      -1.40535459       3.07125144       1.73594176       0.00000000
Si      -3.03503225       0.66394782      -2.51719275       0.00000000
Si       3.98062440       0.38633364      -0.78704947       0.00000000
Si       1.87281243      -0.25423803      -3.63032959       0.00000000
