10
Lattice="16.28999089631971 0.0 0.0 0.0 16.28999089631971 0.0 0.0 0.0 34.31052061344573" Properties=species:S:1:pos:R:3:initial_magmoms:R:1 pbc="T T T"
Si      -1.72211364      -0.83108322       1.36619221       0.00000000
Si      -1.62303786      -0.08532702      -1.87925689       0.00000000
Si       2.00077038      -1.47199698      -0.47249044       0.00000000
Si       0.93045222       2.02535199       1.36687156       0.00000000
Si      -0.31548843      -1.96647993       2.84273943       0.00000000
Si       0.11140731       0.77369355      -3.41914822       0.00000000
Si       2.35758654       0.30100662      -2.66630636       0.00000000
Si      -2.43022365      -2.66442498      -0.08732032       0.00000000
Si       1.11141783      -3.17676177       1.37384689       0.00000000
Si       2.38089753       0.76409874       2.81836522       0.00000000
