10
Lattice="16.28999089631971 0.0 0.0 0.0 16.28999089631971 0.0 0.0 0.0 34.31052061344573" Properties=species:S:1:pos:R:3:initial_magmoms:R:1 pbc="T T T"
Si      -2.24617923       0.47268693      -0.75284186       0.00000000
Si       0.67942332       2.22615882       0.75345945       0.00000000
Si       1.50845400      -0.59328180      -1.97529209       0.00000000
Si      -0.35681616      -1.77300360       2.19381591       0.00000000
Si       2.92829040       1.73275101       1.02303736       0.00000000
Si      -2.35758654      -0.30100662       2.66630636       0.00000000
Si      -2.10781197      -0.64057167      -2.84328012       0.00000000
Si       3.38310720       0.65003616      -1.09766279       0.00000000
Si      -0.01151703      -0.14289588      -3.78915308       0.00000000
Si      -0.44940852      -3.87843723       0.72951070       0.00000000
