10
Lattice="16.28999089631971 0.0 0.0 0.0 16.28999089631971 0.0 0.0 0.0 34.31052061344573" Properties=species:S:1:pos:R:3:initial_magmoms:R:1 pbc="T T T"
Si       0.03686264       2.31669212      -0.03427623       0.00000000
Si      -1.59447564      -0.71241220      -1.53745529       0.00000000
Si      -0.86755068      -0.40739009       2.14952101       0.00000000
Si       1.74913549      -1.49044832      -0.55713455       0.00000000
Si      -1.92651471      -2.92514384      -0.72007530       0.00000000
Si       0.37784655      -3.49070006      -0.72110461       0.00000000
Si       1.96497799       2.80459391       1.19709473       0.00000000
Si       0.69448017      -1.89905303       3.12792036       0.00000000
Si      -3.43666287       0.77832968      -1.36319206       0.00000000
Si       0.15766114       3.04327499      -2.27430844       0.00000000
