10
Lattice="16.28999089631971 0.0 0.0 0.0 16.28999089631971 0.0 0.0 0.0 34.31052061344573" Properties=species:S:1:pos:R:3:initial_magmoms:R:1 pbc="T T T"
Si      -2.37630375       0.13781340      -0.09476571       0.00000000
Si       1.42868187       1.89794790      -0.30810865       0.00000000
Si       0.79583166      -1.29992571       1.87661497       0.00000000
Si      -1.59887979       0.04183272      -2.65299387       0.00000000
Si      -2.46897756       2.18574333       1.30115860       0.00000000
Si       2.94840855      -1.84347414       0.99370185       0.00000000
Si       1.25333631       2.53298097      -2.61429158       0.00000000
Si       1.28029626       3.25123965       1.92746319       0.00000000
Si      -0.56627298      -3.11924178       2.50302250       0.00000000
Si       0.26394687       0.84712887      -3.97847864       0.00000000
