10
Lattice="16.28999089631971 0.0 0.0 0.0 16.28999089631971 0.0 0.0 0.0 34.31052061344573" Properties=species:S:1:pos:R:3:initial_magmoms:R:1 pbc="T T T"
Si      -1.42868187      -1.89794790       0.30810865       0.00000000
Si      -0.17534556       0.63503307      -2.30618293       0.00000000
Si       2.40026634      -0.40171140      -0.06824366       0.00000000
Si      -0.14838561       1.35329175       2.23557184       0.00000000
Si      -2.01507300       2.21590656      -2.22263677       0.00000000
Si      -0.03657105       3.52987100       1.21445587       0.00000000
Si       2.76941403      -1.83817989       1.81266013       0.00000000
Si      -3.27202569       2.14352358      -0.02264496       0.00000000
Si      -0.63285021      -3.19787361       2.18472362       0.00000000
Si       3.50889858       1.79354042      -0.14873619       0.00000000
