10
Lattice="16.28999089631971 0.0 0.0 0.0 16.28999089631971 0.0 0.0 0.0 34.31052061344573" Properties=species:S:1:pos:R:3:initial_magmoms:R:1 pbc="T T T"
Si      -1.68373440       1.40724423       0.76625729       0.00000000
Si       2.02818645       1.13674878      -0.34952147       0.00000000
Si       0.54700191      -0.76256748       2.18468931       0.00000000
Si      -0.79255737      -0.99864216      -2.08192924       0.00000000
Si       2.60970687       0.36105156      -2.45399274       0.00000000
Si       1.36001952      -1.54219059      -2.96484236       0.00000000
Si       0.76602096       1.16131410       3.54424445       0.00000000
Si      -2.15466201      -2.81795823      -1.45552172       0.00000000
Si      -2.47744836       0.70861500       2.88736917       0.00000000
Si      -1.44554202      -1.31302287       3.37910782       0.00000000
