10
Lattice="16.28999089631971 0.0 0.0 0.0 16.28999089631971 0.0 0.0 0.0 34.31052061344573" Properties=species:S:1:pos:R:3:initial_magmoms:R:1 pbc="T T T"
Si       0.40203720       1.53331321      -1.77248249       0.00000000
Si       0.96295077      -2.05653105      -0.88033983       0.00000000
Si      -2.35095651       0.38975454       0.56756495       0.00000000
Si       1.55602080       1.39643323       1.30925589       0.00000000
Si      -0.37791171      -2.05832295      -2.83473680       0.00000000
Si       2.08487565       0.44233866      -3.00488276       0.00000000
Si       1.44010116       0.33679575       3.40027742       0.00000000
Si       2.99434635      -1.41216381      -1.92183627       0.00000000
Si       0.84994704       3.64510646       0.88507468       0.00000000
Si      -1.43879796       1.89227639      -3.18518465       0.00000000
