10
Lattice="16.28999089631971 0.0 0.0 0.0 16.28999089631971 0.0 0.0 0.0 34.31052061344573" Properties=species:S:1:pos:R:3:initial_magmoms:R:1 pbc="T T T"
Si       0.11591964       1.05963748      -2.09102154       0.00000000
Si      -1.93720680      -0.91298934       1.16552359       0.00000000
Si       0.81982683       1.96350442       1.28051536       0.00000000
Si       1.82443113      -1.77140718      -0.08251685       0.00000000
Si      -0.54525888      -2.02338090       2.70681479       0.00000000
Si       2.18470077       0.71545680       2.72398722       0.00000000
Si      -1.44010116      -0.33679575      -3.40027742       0.00000000
Si       0.71754192      -3.44631240       1.24301051       0.00000000
Si       3.52434150      -0.66106449       1.38184811       0.00000000
Si       2.04933087       3.39591833      -0.20370167       0.00000000
