10
Lattice="16.28999089631971 0.0 0.0 0.0 16.28999089631971 0.0 0.0 0.0 34.31052061344573" Properties=species:S:1:pos:R:3:initial_magmoms:R:1 pbc="T T T"
Si       1.45402911      -1.23470869      -1.43311694       0.00000000
Si      -1.24892172       1.48967163      -1.43047502       0.00000000
Si       1.60552611       1.20557403       1.38652322       0.00000000
Si      -1.65384225      -1.05689683       1.52434866       0.00000000
Si      -3.11367060       0.99123021       1.56603597       0.00000000
Si       0.36365796       1.31020470       3.41839339       0.00000000
Si       0.10373472      -2.59020894      -2.80179868       0.00000000
Si      -2.76869727      -2.64801185       0.10392663       0.00000000
Si      -2.61794961       0.13111821      -2.80375438       0.00000000
Si      -2.62475883       2.82520728      -0.01355266       0.00000000
