10
Lattice="16.28999089631971 0.0 0.0 0.0 16.28999089631971 0.0 0.0 0.0 34.31052061344573" Properties=species:S:1:pos:R:3:initial_magmoms:R:1 pbc="T T T"
Si       0.10432116      -2.33513698       0.17018028       0.00000000
Si      -1.95605433       0.63772353      -1.12984608       0.00000000
Si      -0.54851688       0.72090515       2.17772427       0.00000000
Si       1.69842798       1.41727333      -0.83577044       0.00000000
Si       1.24017399       2.18671356       2.49495952       0.00000000
Si      -2.25310248       2.89233120      -0.39573777       0.00000000
Si       1.69963344       0.88343700      -3.15653535       0.00000000
Si      -3.70509534      -0.55069780      -0.01972856       0.00000000
Si      -2.37679245       2.19063945       1.89596612       0.00000000
Si       2.05457625      -2.85460879       1.33615535       0.00000000
