10
Lattice="16.28999089631971 0.0 0.0 0.0 16.28999089631971 0.0 0.0 0.0 34.31052061344573" Properties=species:S:1:pos:R:3:initial_magmoms:R:1 pbc="T T T"
Si       1.72260234      -0.82448577      -1.34335370       0.00000000
Si      -1.31953887      -1.38152232       1.36671232       0.00000000
Si       1.38082185       1.34799750       1.37652513       0.00000000
Si      -1.44793665       1.33488405      -1.51347908       0.00000000
Si       1.50231267       0.53903610      -3.27068107       0.00000000
Si       0.33283728       2.50150869      -2.63662740       0.00000000
Si      -2.69052156       2.70459612      -0.01180283       0.00000000
Si      -2.68179012      -0.01848915       2.72438038       0.00000000
Si      -2.67877647      -2.72927547      -0.02098776       0.00000000
Si       0.03432303       2.69596242       2.72973282       0.00000000
