10
Lattice="16.28999089631971 0.0 0.0 0.0 16.28999089631971 0.0 0.0 0.0 34.31052061344573" Properties=species:S:1:pos:R:3:initial_magmoms:R:1 pbc="T T T"
Si       1.35923760       1.34775315       1.38770007       0.00000000
Si      -1.36221867      -1.35716877       1.38643058       0.00000000
Si       1.19115738      -1.57032342      -1.33236404       0.00000000
Si      -1.28122479       1.49301108      -1.43533340       0.00000000
Si       2.67877647       2.72927547       0.02098776       0.00000000
Si      -2.70813105       2.70329292       0.03355914       0.00000000
Si      -2.71207323      -2.74338261       0.01336396       0.00000000
Si      -0.00301365       2.71078632       2.74536813       0.00000000
Si       2.72572425      -2.73253347       0.00763753       0.00000000
Si       2.71248048      -0.00345348       2.75020592       0.00000000
