10
Lattice="16.28999089631971 0.0 0.0 0.0 16.28999089631971 0.0 0.0 0.0 34.31052061344573" Properties=species:S:1:pos:R:3:initial_magmoms:R:1 pbc="T T T"
Si       1.35167904       1.34915409      -1.38027871       0.00000000
Si      -1.36902789      -1.35855342      -1.37327936       0.00000000
Si      -1.37583711       1.33553565       1.41692236       0.00000000
Si       1.24892172      -1.48967163       1.43047502       0.00000000
Si      -1.86474888      -0.49844142       2.99651099       0.00000000
Si       2.70132183       2.68301187      -0.00593572       0.00000000
Si       2.70295083      -2.72438032      -0.00264191       0.00000000
Si      -2.73939156       2.69825931      -0.00140673       0.00000000
Si       2.70469386      -0.00436572      -2.73540778       0.00000000
Si      -0.00905724       2.70765864      -2.73348639       0.00000000
