10
Lattice="16.28999089631971 0.0 0.0 0.0 16.28999089631971 0.0 0.0 0.0 34.31052061344573" Properties=species:S:1:pos:R:3:initial_magmoms:R:1 pbc="T T T"
Si      -0.23783400      -0.56343852       2.29101767       0.00000000
Si      -0.77284647      -1.80742437      -1.34099314       0.00000000
Si      -1.49027436       1.90332360      -0.14678049       0.00000000
Si       1.81975590       0.79245963      -1.42879381       0.00000000
Si      -2.13640092      -0.44470071      -2.75932223       0.00000000
Si       0.32118993       3.15949437       1.58837213       0.00000000
Si       1.91648592       0.12248451       3.03154205       0.00000000
Si      -0.13616811      -2.88419337       2.17000440       0.00000000
Si       0.58990977       2.29943124      -2.76765969       0.00000000
Si      -3.47438007       0.85300956      -1.25538834       0.00000000
