10
Lattice="16.28999089631971 0.0 0.0 0.0 16.28999089631971 0.0 0.0 0.0 34.31052061344573" Properties=species:S:1:pos:R:3:initial_magmoms:R:1 pbc="T T T"
Si       1.84381623       1.34389242      -0.36396621       0.00000000
Si      -1.09954242      -0.20268018      -2.08395357       0.00000000
Si       0.28140975      -2.34585774       0.11538635       0.00000000
Si      -0.95539221       0.27859158       2.20445218       0.00000000
Si      -1.39911552      -2.55611277      -1.88591313       0.00000000
Si       1.00247031       3.56374701      -0.50035060       0.00000000
Si      -2.95182945       1.23101901      -2.01454334       0.00000000
Si      -1.80589311      -1.92906180       2.74604405       0.00000000
Si       3.28194630       0.59627916      -2.09023239       0.00000000
Si       1.85028336      -3.09803220      -1.60199341       0.00000000
