10
Lattice="16.28999089631971 0.0 0.0 0.0 16.28999089631971 0.0 0.0 0.0 34.31052061344573" Properties=species:S:1:pos:R:3:initial_magmoms:R:1 pbc="T T T"
Si       2.26178505      -0.40861836      -0.47454908       0.00000000
Si      -0.21378996       0.72712044       2.24850691       0.00000000
Si      -0.31022676       2.07071964      -1.12075378       0.00000000
Si      -1.26721539      -2.01289014      -0.34049780       0.00000000
Si       1.95168861      -0.96189192      -2.73499606       0.00000000
Si       2.07684468       0.93726144       2.72422255       0.00000000
Si       0.32632128       3.59297127       0.57494172       0.00000000
Si       3.15263628      -0.91194678       1.65912046       0.00000000
Si      -2.62819602       2.35030491      -1.17208235       0.00000000
Si      -0.22392234      -1.22393286      -3.59773458       0.00000000
