10
Lattice="16.28999089631971 0.0 0.0 0.0 16.28999089631971 0.0 0.0 0.0 34.31052061344573" Properties=species:S:1:pos:R:3:initial_magmoms:R:1 pbc="T T T"
Si      -0.19290618       2.02020435      -1.10946561       0.00000000
Si       1.74793329      -1.54958625      -0.44854169       0.00000000
Si      -1.87465320      -1.24331796      -0.87762930       0.00000000
Si      -0.45481680       1.08271485       2.12070015       0.00000000
Si       0.78134985      -3.29486427       1.00330880       0.00000000
Si      -3.38310720      -0.65003616       1.09766279       0.00000000
Si      -2.70368388       1.57612266       1.85112224       0.00000000
Si      -2.11480038       3.00185604      -0.03980023       0.00000000
Si      -1.03330728      -3.46317255      -0.74124490       0.00000000
Si       1.42117218      -2.13674301      -2.70789073       0.00000000
