10
Lattice="16.28999089631971 0.0 0.0 0.0 16.28999089631971 0.0 0.0 0.0 34.31052061344573" Properties=species:S:1:pos:R:3:initial_magmoms:R:1 pbc="T T T"
Si      -1.35782037      -1.35698958       1.35759944       0.00000000
Si       1.35803214       1.35804843       1.35759944       0.00000000
Si       1.35915615      -1.35984033      -1.35890324       0.00000000
Si      -1.35886293       1.36223496      -1.36147653       0.00000000
Si       0.00760743       2.71682991      -2.70886172       0.00000000
Si      -2.71461447       0.00114030       2.71492439       0.00000000
Si       0.00019548      -2.71487511       2.71482146       0.00000000
Si       2.71513575       0.00052128       2.71519888       0.00000000
Si      -2.71565703      -2.71480995       0.00109794       0.00000000
Si       2.71404432       2.71650927       0.00120087       0.00000000
