10
Lattice="16.28999089631971 0.0 0.0 0.0 16.28999089631971 0.0 0.0 0.0 34.31052061344573" Properties=species:S:1:pos:R:3:initial_magmoms:R:1 pbc="T T T"
Si      -0.69027246      -0.56321046       2.25056555       0.00000000
Si       2.10145887      -1.26470673      -0.06608210       0.00000000
Si      -2.15202303      -0.48107628      -1.19181091       0.00000000
Si      -0.04970079       2.55795354      -0.13542370       0.00000000
Si       0.25801731       1.68508647      -2.29352234       0.00000000
Si      -3.37738941       1.15284330       0.31833319       0.00000000
Si      -1.43119053       0.42490836      -3.35684028       0.00000000
Si      -3.00824172      -0.28362519       2.19923698       0.00000000
Si      -0.60396804      -3.85786296      -0.22641525       0.00000000
Si       1.57164291      -3.59582202       0.63632327       0.00000000
