10
Lattice="16.28999089631971 0.0 0.0 0.0 16.28999089631971 0.0 0.0 0.0 34.31052061344573" Properties=species:S:1:pos:R:3:initial_magmoms:R:1 pbc="T T T"
Si       1.68920784       1.26017811       1.06331794       0.00000000
Si      -1.28590002       1.41551955      -1.46025657       0.00000000
Si       1.43128827      -1.29393099      -1.47603942       0.00000000
Si      -0.72083250      -0.90598464       2.16502937       0.00000000
Si      -2.59841790      -2.57991246      -0.09751055       0.00000000
Si       1.43119053      -0.42490836       3.35684028       0.00000000
Si      -2.62801683       0.06445953      -2.84866688       0.00000000
Si      -2.77834095       2.71666701       0.05860240       0.00000000
Si       2.81344590      -2.69531082      -0.15450036       0.00000000
Si       0.09277155      -2.65803930      -2.85292138       0.00000000
