10
Lattice="16.28999089631971 0.0 0.0 0.0 16.28999089631971 0.0 0.0 0.0 34.31052061344573" Properties=species:S:1:pos:R:3:initial_magmoms:R:1 pbc="T T T"
Si       1.95025509      -0.51947181       1.16597507       0.00000000
Si      -0.10432116       2.33513698      -0.17018028       0.00000000
Si      -1.55895300      -0.69700023       1.61660970       0.00000000
Si      -0.63654804      -1.52225163      -1.69569550       0.00000000
Si      -0.54011124      -2.86585083       1.67356520       0.00000000
Si      -3.53603772      -0.46696914       0.35744720       0.00000000
Si      -1.34596125       1.07543322       3.16363763       0.00000000
Si      -2.95451730      -1.24266636      -1.74702406       0.00000000
Si      -0.32632128      -3.59297127      -0.57494172       0.00000000
Si       3.62975409      -0.46056717      -0.40822680       0.00000000
