10
Lattice="16.28999089631971 0.0 0.0 0.0 16.28999089631971 0.0 0.0 0.0 34.31052061344573" Properties=species:S:1:pos:R:3:initial_magmoms:R:1 pbc="T T T"
Si       0.36914769      -1.43646849       1.88090379       0.00000000
Si      -2.40026634       0.40171140       0.06824366       0.00000000
Si       1.10863224       2.19525182      -0.08049253       0.00000000
Si       1.22536638      -1.63391958      -1.51014410       0.00000000
Si      -2.57561190       1.03674447      -2.23793927       0.00000000
Si       3.37738941      -1.15284330      -0.31833319       0.00000000
Si       3.32768862       1.40511024      -0.45375689       0.00000000
Si      -0.88053966      -3.33971064       1.37005416       0.00000000
Si       2.68711695      -1.71605376       1.93223236       0.00000000
Si      -0.48575151       1.59063705       3.43801902       0.00000000
