10
Lattice="16.28999089631971 0.0 0.0 0.0 16.28999089631971 0.0 0.0 0.0 34.31052061344573" Properties=species:S:1:pos:R:3:initial_magmoms:R:1 pbc="T T T"
Si       2.23668216      -0.45756981      -0.56331044       0.00000000
Si      -0.20746944       1.14289404       2.06762175       0.00000000
Si      -1.21555980      -1.97540685       0.52426505       0.00000000
Si      -0.51443820       1.37051095      -1.90011769       0.00000000
Si      -1.06567551       3.17689928       1.41153561       0.00000000
Si       2.02369041      -2.23000326      -2.11033837       0.00000000
Si      -1.95258456       0.10015092       3.16054968       0.00000000
Si       2.92980537       1.52303911      -1.71940408       0.00000000
Si       3.30427989      -1.18006389       1.36202550       0.00000000
Si       1.10152980       2.99277341      -2.00116223       0.00000000
