10
Lattice="16.28999089631971 0.0 0.0 0.0 16.28999089631971 0.0 0.0 0.0 34.31052061344573" Properties=species:S:1:pos:R:3:initial_magmoms:R:1 pbc="T T T"
Si       0.23886027       1.67619213       1.58003467       0.00000000
Si      -1.06759773       0.72249408      -1.92533594       0.00000000
Si       2.30573547      -0.40366620       0.00161260       0.00000000
Si      -1.11884607      -1.83417255       0.96714550       0.00000000
Si       2.06120628      -2.70451467      -0.58791110       0.00000000
Si      -0.56676168      -1.32574536       3.20638856       0.00000000
Si       1.09201644       0.32539275       3.37677470       0.00000000
Si       2.92436451       0.46543788      -2.12107757       0.00000000
Si      -3.30427989       1.18006389      -1.36202550       0.00000000
Si       0.04675230      -3.81124098       0.15518657       0.00000000
