10
Lattice="16.28999089631971 0.0 0.0 0.0 16.28999089631971 0.0 0.0 0.0 34.31052061344573" Properties=species:S:1:pos:R:3:initial_magmoms:R:1 pbc="T T T"
Si       1.11884607       1.83417255      -0.96714550       0.00000000
Si       0.55208439       0.50842719       2.23924307       0.00000000
Si      -2.38501890      -0.01247814       0.08406082       0.00000000
Si       1.16559837      -1.97706843      -0.81195892       0.00000000
Si      -2.64963366      -2.30470920       0.65721839       0.00000000
Si       3.18005235      -0.87034212      -1.55505659       0.00000000
Si       0.74499057      -1.51177716       3.34870868       0.00000000
Si       1.35770634       3.51036468       0.61288917       0.00000000
Si       3.42458154       1.43050635      -0.96553290       0.00000000
Si       0.05124834       2.55666663      -2.89248144       0.00000000
