10
Lattice="16.28999089631971 0.0 0.0 0.0 16.28999089631971 0.0 0.0 0.0 34.31052061344573" Properties=species:S:1:pos:R:3:initial_magmoms:R:1 pbc="T T T"
Si      -1.90332360       1.11334005      -0.86431681       0.00000000
Si      -0.07289775      -1.31900130       2.02723824       0.00000000
Si       1.45738485       1.91899458       0.44233148       0.00000000
Si       0.38535624      -2.08844153      -1.30349172       0.00000000
Si       1.45290510       2.72785824      -1.89267231       0.00000000
Si       2.50260012      -2.60785470      -0.43629282       0.00000000
Si      -1.14482862       1.88038728      -2.94514811       0.00000000
Si      -3.56617422      -0.61338366      -0.86345904       0.00000000
Si      -1.86158862      -2.78480971       1.71000299       0.00000000
Si      -1.31307174      -3.50571486      -0.46772128       0.00000000
