10
Lattice="16.28999089631971 0.0 0.0 0.0 16.28999089631971 0.0 0.0 0.0 34.31052061344573" Properties=species:S:1:pos:R:3:initial_magmoms:R:1 pbc="T T T"
Si      -1.78869087      -1.46580841      -0.31723525       0.00000000
Si      -0.21250305       0.96554088       2.15796140       0.00000000
Si       1.84218723      -1.49074188      -0.17426323       0.00000000
Si       0.07289775       1.31900130      -2.02723824       0.00000000
Si       0.45825399      -0.76944023      -3.33072996       0.00000000
Si      -1.24017399      -2.18671356      -2.49495952       0.00000000
Si      -3.61696644       0.00392589      -0.59899340       0.00000000
Si       3.43666287      -0.77832968       1.36319206       0.00000000
Si       2.57549787      -1.28885340      -2.46353107       0.00000000
Si       0.25360272      -0.69984609       3.79649554       0.00000000
