10
Lattice="16.28999089631971 0.0 0.0 0.0 16.28999089631971 0.0 0.0 0.0 34.31052061344573" Properties=species:S:1:pos:R:3:initial_magmoms:R:1 pbc="T T T"
Si      -1.35839052      -1.35570267       1.35557512       0.00000000
Si       1.35695700       1.35769005       1.35770237       0.00000000
Si      -1.35764118       1.35786924      -1.35691323       0.00000000
Si       1.35868374      -1.35720135      -1.35657012       0.00000000
Si      -2.71140534      -0.00218286       2.71070420       0.00000000
Si       2.71427137       0.00094482      -2.71221386       0.00000000
Si      -2.71484253       0.00115659      -2.71245403       0.00000000
Si       2.71493581      -2.71417464      -0.00048035       0.00000000
Si      -2.71453302      -2.71464705       0.00041173       0.00000000
Si       2.71311579       0.00135207       2.71643406       0.00000000
