10
Lattice="16.28999089631971 0.0 0.0 0.0 16.28999089631971 0.0 0.0 0.0 34.31052061344573" Properties=species:S:1:pos:R:3:initial_magmoms:R:1 pbc="T T T"
Si       1.35690813      -1.35625653      -1.35766806       0.00000000
Si      -1.35809730      -1.35711990       1.35629564       0.00000000
Si       1.35801585       1.35627282       1.35725633       0.00000000
Si      -1.35843939       1.35826020      -1.35691323       0.00000000
Si      -2.71184517      -0.00325800       2.71382646       0.00000000
Si      -2.71432125       0.00032580      -2.71197369       0.00000000
Si      -0.00017919      -2.71103067       2.71619388       0.00000000
Si      -2.71464705      -2.71401174      -0.00006862       0.00000000
Si       2.71486215      -2.71407690      -0.00030879       0.00000000
Si      -0.00100998       2.71458189      -2.71550767       0.00000000
