10
Lattice="16.28999089631971 0.0 0.0 0.0 16.28999089631971 0.0 0.0 0.0 34.31052061344573" Properties=species:S:1:pos:R:3:initial_magmoms:R:1 pbc="T T T"
Si      -1.35536058       1.32638067       1.35087457       0.00000000
Si      -1.36436895      -1.34412048      -1.34517902       0.00000000
Si       1.35407367       1.36513458      -1.34864439       0.00000000
Si       1.27369881      -1.37363796       1.43023485       0.00000000
Si      -2.31096456      -0.60279516       2.50020903       0.00000000
Si       0.39846969       2.20211478       2.65196455       0.00000000
Si       2.14045943       0.46154457       2.71859562       0.00000000
Si      -0.45766755      -2.26137780       2.78965275       0.00000000
Si      -0.00733050      -2.70492192      -2.70370485       0.00000000
Si       2.70379858      -2.70495450       0.02257634       0.00000000
