10
Lattice="16.28999089631971 0.0 0.0 0.0 16.28999089631971 0.0 0.0 0.0 34.31052061344573" Properties=species:S:1:pos:R:3:initial_magmoms:R:1 pbc="T T T"
Si      -1.32730920      -1.27146708      -1.46910869       0.00000000
Si      -0.73466271       1.37562534       1.77426663       0.00000000
Si       1.44704070       1.36624230      -1.36391258       0.00000000
Si      -0.19565919      -2.27331837       0.95198024       0.00000000
Si      -2.64267294      -2.63591748      -0.03650641       0.00000000
Si       0.79834032       1.27545813       3.51700188       0.00000000
Si       0.07649784      -2.64023433      -2.85830814       0.00000000
Si      -2.63440903       0.07926714      -2.87343909       0.00000000
Si       0.09156609       2.79606447      -2.84129011       0.00000000
Si       2.78501985       0.06853203      -2.86784647       0.00000000
