10
Lattice="16.28999089631971 0.0 0.0 0.0 16.28999089631971 0.0 0.0 0.0 34.31052061344573" Properties=species:S:1:pos:R:3:initial_magmoms:R:1 pbc="T T T"
Si      -2.29063464      -0.21014100      -0.47571563       0.00000000
Si       0.19973169       2.13623802      -0.98330576       0.00000000
Si       0.03231936       0.30413430       2.35178164       0.00000000
Si       1.07579160      -1.84920822      -1.06510209       0.00000000
Si       0.18494037      -1.34587980      -3.19877162       0.00000000
Si      -2.07684468      -0.93726144      -2.72422255       0.00000000
Si       3.32866343      -0.91121373      -0.85649400       0.00000000
Si      -2.99898900      -1.75695795       1.11028907       0.00000000
Si       0.89547759       3.47408685       0.81861517       0.00000000
Si      -1.98213462      -0.80259201       3.09487931       0.00000000
