10
Lattice="16.28999089631971 0.0 0.0 0.0 16.28999089631971 0.0 0.0 0.0 34.31052061344573" Properties=species:S:1:pos:R:3:initial_magmoms:R:1 pbc="T T T"
Si      -1.01634939      -2.07404280       0.24037964       0.00000000
Si       2.24832951      -0.45524034      -0.46895646       0.00000000
Si       0.32676111       0.58715676       2.25934905       0.00000000
Si      -1.00056438       1.67145174      -1.45277688       0.00000000
Si       2.65948911       1.89400572      -0.79573004       0.00000000
Si      -2.45447946      -1.32642954       1.96664583       0.00000000
Si       1.01388960       2.77817805      -2.19587455       0.00000000
Si      -1.42117218       2.13674301       2.70789073       0.00000000
Si      -1.90361682      -2.62335789      -1.87205167       0.00000000
Si       2.28784905      -1.81221363      -2.48442619       0.00000000
