10
Lattice="16.28999089631971 0.0 0.0 0.0 16.28999089631971 0.0 0.0 0.0 34.31052061344573" Properties=species:S:1:pos:R:3:initial_magmoms:R:1 pbc="T T T"
Si       0.71964333       1.52456481       1.70005294       0.00000000
Si      -2.27528946       0.00474039      -0.78344687       0.00000000
Si       1.86800429       1.18190466      -0.96738567       0.00000000
Si       1.34352982      -1.99293489       0.44058164       0.00000000
Si       0.90782657      -2.48745042      -1.94094724       0.00000000
Si       0.76691691       2.89790955      -2.10498593       0.00000000
Si      -0.35372106      -1.03765671      -3.51175237       0.00000000
Si      -3.24187290      -1.74053763       0.66840363       0.00000000
Si       0.78719122       0.55320840       3.78920905       0.00000000
Si       3.11035463       2.11279671       1.18378224       0.00000000
