10
Lattice="16.28999089631971 0.0 0.0 0.0 16.28999089631971 0.0 0.0 0.0 34.31052061344573" Properties=species:S:1:pos:R:3:initial_magmoms:R:1 pbc="T T T"
Si      -1.35801585      -1.35627282      -1.35725633       0.00000000
Si       1.36024758      -1.35804843       1.35547218       0.00000000
Si       1.35735204       1.35946566      -1.35722202       0.00000000
Si      -1.35770634       1.36019871       1.36209412       0.00000000
Si       2.71253328      -2.71220355      -0.00120087       0.00000000
Si       0.00617391      -2.72318301       2.70411657       0.00000000
Si      -0.00110772      -2.71252935      -2.71492439       0.00000000
Si       0.00068418       2.71215468       2.71626250       0.00000000
Si       2.71479759       0.00201996      -2.71454698       0.00000000
Si      -2.71611315      -2.71339272      -0.00096070       0.00000000
