10
Lattice="16.28999089631971 0.0 0.0 0.0 16.28999089631971 0.0 0.0 0.0 34.31052061344573" Properties=species:S:1:pos:R:3:initial_magmoms:R:1 pbc="T T T"
Si       1.38205404      -1.31533605      -1.37784266       0.00000000
Si      -1.33866333       1.40245497      -1.37866611       0.00000000
Si       1.77032294       1.03881330       1.21792123       0.00000000
Si      -0.93470391      -1.83076794       1.26115251       0.00000000
Si       2.71064690      -2.57807169       0.16678353       0.00000000
Si       3.41398394      -0.73766007       1.51309480       0.00000000
Si      -2.68853418      -2.70650205      -0.03993747       0.00000000
Si      -2.55943593       2.82943797      -0.00946971       0.00000000
Si       0.02090007      -2.66774814      -2.73945643       0.00000000
Si      -2.69705385       0.05049900      -2.73283449       0.00000000
