10
Lattice="16.28999089631971 0.0 0.0 0.0 16.28999089631971 0.0 0.0 0.0 34.31052061344573" Properties=species:S:1:pos:R:3:initial_magmoms:R:1 pbc="T T T"
Si       1.07323148      -0.13082499       2.07167039       0.00000000
Si       1.84179857       0.79168278      -1.22886629       0.00000000
Si      -1.71903483       1.66584376       0.28755663       0.00000000
Si       0.02593368       1.83551063      -2.57119754       0.00000000
Si      -3.31032348       0.04618215      -0.46741248       0.00000000
Si       2.58048980      -1.03685850      -2.58547073       0.00000000
Si       0.31540698      -2.01329739       3.20604546       0.00000000
Si       3.35405303      -0.66942126       1.66385532       0.00000000
Si      -1.72024029       2.19968010       2.60832155       0.00000000
Si      -1.21002120       3.43146311      -1.24108085       0.00000000
