10
Lattice="16.28999089631971 0.0 0.0 0.0 16.28999089631971 0.0 0.0 0.0 34.31052061344573" Properties=species:S:1:pos:R:3:initial_magmoms:R:1 pbc="T T T"
Si      -0.81277815       0.85556709       2.03231620       0.00000000
Si      -1.39268749      -1.88959113      -0.11720480       0.00000000
Si      -0.47977634       0.98150508      -2.11328908       0.00000000
Si       2.40052698       0.04647537       0.00535244       0.00000000
Si      -0.10950138       3.01119021       1.63386790       0.00000000
Si       1.34705268      -0.12991275      -3.15869691       0.00000000
Si       2.82696660      -1.35799956      -1.75862103       0.00000000
Si      -3.45672890      -0.91654056      -0.79099518       0.00000000
Si      -1.51348598      -2.61617400       2.12282741       0.00000000
Si       0.71177526       0.16762410       3.66182667       0.00000000
