10
Lattice="16.28999089631971 0.0 0.0 0.0 16.28999089631971 0.0 0.0 0.0 34.31052061344573" Properties=species:S:1:pos:R:3:initial_magmoms:R:1 pbc="T T T"
Si       1.85336217      -1.42019478      -0.12766952       0.00000000
Si      -1.25600787      -1.08791136      -1.65359647       0.00000000
Si       0.49045932       2.36081196       0.03341847       0.00000000
Si      -0.56607750      -0.97735113       2.36945157       0.00000000
Si       1.74607623      -1.58816097       2.22744024       0.00000000
Si      -1.26535833       3.32910585      -1.25089366       0.00000000
Si      -0.54266877      -3.34099103      -1.84281909       0.00000000
Si      -1.23626439       0.12403206      -3.66494893       0.00000000
Si       3.58777476      -0.49028013      -1.40837904       0.00000000
Si       1.29816639      -3.69995422      -0.43011693       0.00000000
