10
Lattice="16.28999089631971 0.0 0.0 0.0 16.28999089631971 0.0 0.0 0.0 34.31052061344573" Properties=species:S:1:pos:R:3:initial_magmoms:R:1 pbc="T T T"
Si      -1.35681365       1.35379674      -1.36312344       0.00000000
Si       1.35920502      -1.36472733      -1.36020704       0.00000000
Si      -1.35937444      -1.36213722       1.36477034       0.00000000
Si       1.36660068       1.35466011       1.39691932       0.00000000
Si      -2.70909935       2.70795186      -0.00645038       0.00000000
Si       2.71630863       2.70977634       0.00120087       0.00000000
Si       0.00242721       2.71044423      -2.71938476       0.00000000
Si      -2.71250062      -0.00434943      -2.71948769       0.00000000
Si      -2.71434473      -2.71844262      -0.00277915       0.00000000
Si       2.71793763      -0.00441459      -2.71928183       0.00000000
