10
Lattice="16.28999089631971 0.0 0.0 0.0 16.28999089631971 0.0 0.0 0.0 34.31052061344573" Properties=species:S:1:pos:R:3:initial_magmoms:R:1 pbc="T T T"
Si       1.15959713      -0.75899997      -1.86910097       0.00000000
Si       0.93417611      -1.03549014       1.87194874       0.00000000
Si       0.19401716       2.41160418      -0.20335857       0.00000000
Si      -2.25287183      -0.93799449      -0.20860808       0.00000000
Si      -3.32866343       0.91121373       0.85649400       0.00000000
Si       0.56390116      -3.06517527      -1.87520824       0.00000000
Si       0.37326417       0.57819726      -3.62508008       0.00000000
Si       0.45831589       0.25327692       3.69915654       0.00000000
Si      -1.44943274       3.10635639      -1.70101363       0.00000000
Si      -1.82219681       1.35123921      -3.17098009       0.00000000
