10
Lattice="16.28999089631971 0.0 0.0 0.0 16.28999089631971 0.0 0.0 0.0 34.31052061344573" Properties=species:S:1:pos:R:3:initial_magmoms:R:1 pbc="T T T"
Si       1.35744555      -1.35744570      -1.35732495       0.00000000
Si      -1.35749865       1.35767376      -1.35729064       0.00000000
Si       1.35934496       1.35788553       1.35667305       0.00000000
Si      -1.35735204      -1.35946566       1.35722202       0.00000000
Si       2.71368904       0.00073305       2.71300300       0.00000000
Si       0.00253247       2.71115878       2.71712027       0.00000000
Si       2.71447096      -0.00026064      -2.71489008       0.00000000
Si       2.71442209      -2.71502172      -0.00024017       0.00000000
Si       2.71522030       2.71456641      -0.00027448       0.00000000
Si       0.00289554      -2.71751409       2.71269421       0.00000000
