10
Lattice="16.28999089631971 0.0 0.0 0.0 16.28999089631971 0.0 0.0 0.0 34.31052061344573" Properties=species:S:1:pos:R:3:initial_magmoms:R:1 pbc="T T T"
Si       1.35697655      -1.35757602       1.35708478       0.00000000
Si       1.35702542       1.35718506      -1.35756513       0.00000000
Si      -1.35744555       1.35744570       1.35732495       0.00000000
Si      -1.35795998      -1.35723393      -1.35907479       0.00000000
Si      -0.00226431      -2.71422351       2.71334611       0.00000000
Si       2.71385210       0.00140094       2.71451267       0.00000000
Si       0.00250703       2.71070487      -2.71811527       0.00000000
Si       0.00189941       2.71533123       2.71399801       0.00000000
Si      -2.71479759      -0.00201996       2.71454698       0.00000000
Si       2.71520417       2.71417464      -0.00003431       0.00000000
