10
Lattice="16.28999089631971 0.0 0.0 0.0 16.28999089631971 0.0 0.0 0.0 34.31052061344573" Properties=species:S:1:pos:R:3:initial_magmoms:R:1 pbc="T T T"
Si       2.37630375      -0.13781340       0.09476571       0.00000000
Si      -1.30862294      -1.82410533       1.01404800       0.00000000
Si      -0.09267381       2.04792993       1.39592431       0.00000000
Si       0.77742396      -0.09598068      -2.55822816       0.00000000
Si      -0.86623704       1.68049269      -2.85340173       0.00000000
Si       0.33831072       1.14450282       3.54050460       0.00000000
Si      -3.50408393      -1.05106338       1.46814800       0.00000000
Si      -2.37349535       2.58652620       1.80373939       0.00000000
Si       0.53295993       3.90365808      -0.23598789       0.00000000
Si       3.17213541      -1.43773911       1.97138068       0.00000000
