10
Lattice="16.28999089631971 0.0 0.0 0.0 16.28999089631971 0.0 0.0 0.0 34.433804113860816" Properties=species:S:1:pos:R:3:initial_magmoms:R:1 pbc="T T T"
Si      -2.18010210       0.54729513      -0.73133997       0.00000000
Si       0.45330183       2.23377669       0.76267475       0.00000000
Si       1.22528493      -0.08827551      -2.10411321       0.00000000
Si       0.34498962      -1.99919025       1.43375554       0.00000000
Si      -0.85568112      -0.49389651       3.05944521       0.00000000
Si       2.92459257       1.47703941      -1.79104089       0.00000000
Si       2.00624382       1.94616371       2.48264423       0.00000000
Si      -1.86734225       1.56596814      -2.86499740       0.00000000
Si       1.61254710       3.30444998      -1.00233416       0.00000000
Si       2.92126941      -2.05991937       1.36295960       0.00000000
