10
Lattice="16.28999089631971 0.0 0.0 0.0 16.28999089631971 0.0 0.0 0.0 34.433804113860816" Properties=species:S:1:pos:R:3:initial_magmoms:R:1 pbc="T T T"
Si       1.34734590      -1.34695561       1.35335256       0.00000000
Si       1.35474156       1.35860881      -1.35634830       0.00000000
Si      -1.35899325      -1.35532332      -1.35614170       0.00000000
Si      -1.36003581       1.35828301       1.36581760       0.00000000
Si      -0.00648342      -2.69586535       2.71999657       0.00000000
Si       2.71181259      -2.71345855       0.00423536       0.00000000
Si      -0.00228060      -2.71352371      -2.71335085       0.00000000
Si      -2.71616691      -2.71083586       0.00268584       0.00000000
Si       2.71350675       0.00132601      -2.71428056       0.00000000
Si       2.70643689      -0.01082959       2.72133949       0.00000000
