10
Lattice="16.28999089631971 0.0 0.0 0.0 16.28999089631971 0.0 0.0 0.0 34.433804113860816" Properties=species:S:1:pos:R:3:initial_magmoms:R:1 pbc="T T T"
Si       0.19955250       2.33647470      -0.13587587       0.00000000
Si       0.99140940      -0.65417382       2.02949511       0.00000000
Si      -2.19274803      -0.71070012       0.70241556       0.00000000
Si       1.01343348      -0.92722680      -2.04130592       0.00000000
Si       0.19821672      -2.91841866       1.78794184       0.00000000
Si      -1.82426823      -3.07786844       0.49577819       0.00000000
Si       1.86652449       1.15044867      -2.88376384       0.00000000
Si       0.14491584       2.87305101      -2.40602897       0.00000000
Si       2.44053522       2.91244023       0.16211444       0.00000000
Si      -3.82223673       0.56382948      -0.43441712       0.00000000
