10
Lattice="16.28999089631971 0.0 0.0 0.0 16.28999089631971 0.0 0.0 0.0 34.433804113860816" Properties=species:S:1:pos:R:3:initial_magmoms:R:1 pbc="T T T"
Si      -1.14823323       1.28430360       1.55830268       0.00000000
Si       2.24098272       0.57596553       0.29799031       0.00000000
Si      -0.05463666       0.53657631      -2.27015311       0.00000000
Si      -0.19955250      -2.33647470       0.13587587       0.00000000
Si       1.66697199      -1.18602603      -2.74788797       0.00000000
Si       2.54440026       2.58064551      -0.88939122       0.00000000
Si       3.48617403      -0.74955177      -1.16117739       0.00000000
Si       0.79185690      -2.99064852       2.16537098       0.00000000
Si       0.85874364       2.71575477      -2.60054564       0.00000000
Si       0.81388098      -3.26370150      -1.90543005       0.00000000
