10
Lattice="16.28999089631971 0.0 0.0 0.0 16.28999089631971 0.0 0.0 0.0 34.433804113860816" Properties=species:S:1:pos:R:3:initial_magmoms:R:1 pbc="T T T"
Si      -0.65858841       1.02325635       2.00057070       0.00000000
Si       0.47794860       1.51925427      -1.73305433       0.00000000
Si      -1.64849913      -1.45015209      -0.93257124       0.00000000
Si       1.97912097      -1.32484941       0.32629491       0.00000000
Si       1.16927991      -0.04647537      -3.48387651       0.00000000
Si      -0.33645366      -3.27756266      -1.72127796       0.00000000
Si       1.26254016       2.08469646       2.81348441       0.00000000
Si       1.29855735      -3.52097599      -0.04837952       0.00000000
Si      -1.09895598      -0.69820569       3.52795181       0.00000000
Si      -2.80774440      -2.52082537       0.83243768       0.00000000
