10
Lattice="16.28999089631971 0.0 0.0 0.0 16.28999089631971 0.0 0.0 0.0 34.433804113860816" Properties=species:S:1:pos:R:3:initial_magmoms:R:1 pbc="T T T"
Si       1.35537687       1.35661491      -1.35758792       0.00000000
Si      -1.35710361       1.35710361       1.35727802       0.00000000
Si      -1.35744570      -1.35772263      -1.35672707       0.00000000
Si       1.35729909      -1.35739683       1.35796669       0.00000000
Si      -0.00449604      -2.71010214      -2.71593338       0.00000000
Si      -2.71134832       0.00089595      -2.71765507       0.00000000
Si      -2.71441410       2.71467963       0.00027547       0.00000000
Si      -0.00174303       2.71691136      -2.71228340       0.00000000
Si      -2.71486696      -0.00047241       2.71434943       0.00000000
Si       0.00079821      -2.71551042       2.71379849       0.00000000
