10
Lattice="16.28999089631971 0.0 0.0 0.0 16.28999089631971 0.0 0.0 0.0 34.433804113860816" Properties=species:S:1:pos:R:3:initial_magmoms:R:1 pbc="T T T"
Si      -0.44559666      -0.54618741       2.29501433       0.00000000
Si       1.09201644       2.15083386      -0.28380357       0.00000000
Si      -1.43545851      -0.24306309      -2.06637374       0.00000000
Si       0.57526506      -2.77812918      -0.12258441       0.00000000
Si      -1.84083516       1.38882024       2.30689400       0.00000000
Si      -3.29263254       0.69072858       0.42498225       0.00000000
Si       2.16948591       1.50400683      -2.24904517       0.00000000
Si       3.43593567      -0.62988543       0.24720042       0.00000000
Si      -3.06493092      -1.67420475      -0.32267936       0.00000000
Si       0.33410790       0.56628927      -3.49799438       0.00000000
