10
Lattice="16.28999089631971 0.0 0.0 0.0 16.28999089631971 0.0 0.0 0.0 34.433804113860816" Properties=species:S:1:pos:R:3:initial_magmoms:R:1 pbc="T T T"
Si      -1.34019459       1.29847590      -1.44053900       0.00000000
Si      -1.90614177      -0.67854366       1.23882566       0.00000000
Si       1.35977517      -1.43107650      -1.41746834       0.00000000
Si       0.98134218       1.83109374       1.36612751       0.00000000
Si      -0.64813023       0.39995208       3.10982189       0.00000000
Si      -2.57725719       2.70897813      -0.01435890       0.00000000
Si       3.54568140      -0.82005489       1.05381273       0.00000000
Si      -2.65276134      -2.71401174       0.07375725       0.00000000
Si       2.75090859       2.64044610      -0.06549313       0.00000000
Si       0.00337203       2.65095315      -2.80064059       0.00000000
