10
Lattice="16.28999089631971 0.0 0.0 0.0 16.28999089631971 0.0 0.0 0.0 34.433804113860816" Properties=species:S:1:pos:R:3:initial_magmoms:R:1 pbc="T T T"
Si      -1.56291147       0.59745204       1.66156971       0.00000000
Si       1.64542032       1.69637544       0.32285153       0.00000000
Si       1.39523850      -1.93500765      -0.01187967       0.00000000
Si      -1.45179738      -0.69809166      -1.88191175       0.00000000
Si       1.84083516      -1.38882024      -2.30689400       0.00000000
Si       1.51951491       1.55233926       2.71252443       0.00000000
Si      -2.82393666      -1.40463783       1.73381187       0.00000000
Si      -0.47464173       0.74647296       3.74075283       0.00000000
Si      -2.52680706       2.75415030       0.94355563       0.00000000
Si       2.93285160       0.76201362      -2.59069757       0.00000000
