10
Lattice="16.28999089631971 0.0 0.0 0.0 16.28999089631971 0.0 0.0 0.0 34.433804113860816" Properties=species:S:1:pos:R:3:initial_magmoms:R:1 pbc="T T T"
Si       1.83813102       1.42780221       0.07131245       0.00000000
Si       0.56573541      -1.99912509      -1.12753555       0.00000000
Si      -1.46561130       1.53582120      -1.10091820       0.00000000
Si      -0.24915555      -0.55210068       2.32080526       0.00000000
Si      -3.44583999       0.36281088      -0.76587710       0.00000000
Si       1.70935857       2.23658442       2.25531213       0.00000000
Si      -1.88279820       0.96677892       3.09026348       0.00000000
Si       1.78681752       0.10976202       3.35323459       0.00000000
Si       2.12364585      -3.16788372       0.24289619       0.00000000
Si       3.84240375       0.37872621      -0.56127132       0.00000000
