10
Lattice="16.28999089631971 0.0 0.0 0.0 16.28999089631971 0.0 0.0 0.0 34.433804113860816" Properties=species:S:1:pos:R:3:initial_magmoms:R:1 pbc="T T T"
Si      -1.35633798      -1.35778779      -1.36017046       0.00000000
Si       1.35874890       1.35773793      -1.36013602       0.00000000
Si      -1.36446669       1.36650294       1.34911720       0.00000000
Si       1.36601424      -1.36831113       1.35204407       0.00000000
Si      -0.00537570       2.70262896       2.71710413       0.00000000
Si       0.01619226      -2.69505018       2.72605693       0.00000000
Si      -2.71181259       2.71345855      -0.00423536       0.00000000
Si      -2.71314837      -2.71505430      -0.00175612       0.00000000
Si       2.71606428      -2.71311579      -0.00585375       0.00000000
Si       2.71673217       2.71405151      -0.00092971       0.00000000
