10
Lattice="16.28999089631971 0.0 0.0 0.0 16.28999089631971 0.0 0.0 0.0 34.433804113860816" Properties=species:S:1:pos:R:3:initial_magmoms:R:1 pbc="T T T"
Si      -1.07232183       1.63713264      -1.35559076       0.00000000
Si       1.66353480      -1.07720883      -1.33231349       0.00000000
Si       1.15608501       1.88781456       1.28830707       0.00000000
Si      -1.92943647      -1.84394655      -0.17550920       0.00000000
Si      -0.26551071      -1.71579312       2.66001285       0.00000000
Si       0.29906811      -2.43380745      -2.72065082       0.00000000
Si      -2.43141282       0.30100662      -2.72357769       0.00000000
Si      -2.53915488      -1.94937543       2.04316534       0.00000000
Si      -2.38679451       2.96222966       0.09717225       0.00000000
Si       3.20132709      -2.35994859       0.16376726       0.00000000
