10
Lattice="16.28999089631971 0.0 0.0 0.0 16.28999089631971 0.0 0.0 0.0 34.433804113860816" Properties=species:S:1:pos:R:3:initial_magmoms:R:1 pbc="T T T"
Si       0.22028967      -2.34955557      -0.42456904       0.00000000
Si      -1.70432496       0.47768796      -1.63725943       0.00000000
Si       2.03551695       0.98596854      -0.91862554       0.00000000
Si      -0.46514466       0.72268956       2.29408461       0.00000000
Si      -2.16112914       2.69433342      -1.17298819       0.00000000
Si       0.26816598      -2.44791459      -2.79847126       0.00000000
Si      -0.75908142      -0.41137137      -3.63579854       0.00000000
Si       1.06243380      -0.85382406       3.51720845       0.00000000
Si       3.68072550      -0.71185671      -0.77827328       0.00000000
Si      -3.04142445       0.78341868       2.36488055       0.00000000
