10
Lattice="16.28999089631971 0.0 0.0 0.0 16.28999089631971 0.0 0.0 0.0 34.433804113860816" Properties=species:S:1:pos:R:3:initial_magmoms:R:1 pbc="T T T"
Si       0.60237162       2.29104908       0.36489523       0.00000000
Si      -1.01382444      -0.37825380       2.17907564       0.00000000
Si       2.04893991      -1.42550532      -0.26586355       0.00000000
Si      -1.17981954      -0.35323236      -2.24814989       0.00000000
Si      -2.75032215       1.28729837      -1.60830059       0.00000000
Si       1.58553828       2.74308029      -1.74304014       0.00000000
Si       1.01053386      -3.46959081       0.40535497       0.00000000
Si       0.18625986      -2.57199552       2.62554774       0.00000000
Si       1.42610805       2.22867467       2.60581402       0.00000000
Si       2.85770583      -0.95790087      -2.50216821       0.00000000
