10
Lattice="16.28999089631971 0.0 0.0 0.0 16.28999089631971 0.0 0.0 0.0 34.433804113860816" Properties=species:S:1:pos:R:3:initial_magmoms:R:1 pbc="T T T"
Si       1.35723393      -1.35702117      -1.35803556       0.00000000
Si      -1.35705474       1.35704663      -1.35837990       0.00000000
Si       1.35798327       1.35631358       1.35920631       0.00000000
Si      -1.35874890      -1.35773793       1.36013602       0.00000000
Si       0.00083079       2.71542086      -2.71324755       0.00000000
Si      -2.71430496      -0.00219957      -2.71462490       0.00000000
Si       2.71523349       0.00103543      -2.71414282       0.00000000
Si       2.71489140       2.71459007      -0.00027547       0.00000000
Si      -0.00019548      -2.71472751      -2.71503810       0.00000000
Si      -2.71581993       2.71432943      -0.00044764       0.00000000
