10
Lattice="16.28999089631971 0.0 0.0 0.0 16.28999089631971 0.0 0.0 0.0 34.433804113860816" Properties=species:S:1:pos:R:3:initial_magmoms:R:1 pbc="T T T"
Si      -1.43988939       1.28434432       1.30507634       0.00000000
Si      -1.35827649      -1.33423149      -1.36409591       0.00000000
Si       1.35695700       1.37705071      -1.36099687       0.00000000
Si       1.39525479      -1.19591764       1.58863887       0.00000000
Si       0.38926584       2.14160557       2.65440014       0.00000000
Si       2.34071010       0.75133552       2.74991957       0.00000000
Si       2.70686043      -2.68918482       0.02906215       0.00000000
Si      -2.70412371      -2.70446484       0.02066029       0.00000000
Si      -0.00373041      -2.69454423      -2.72261355       0.00000000
Si       2.71047681       0.01973696      -2.72257911       0.00000000
