10
Lattice="16.28999089631971 0.0 0.0 0.0 16.28999089631971 0.0 0.0 0.0 34.433804113860816" Properties=species:S:1:pos:R:3:initial_magmoms:R:1 pbc="T T T"
Si       1.29784059      -0.17860356       1.99051603       0.00000000
Si       1.77168411       1.02378577      -1.33620452       0.00000000
Si      -1.15608501      -1.88781456      -1.28830707       0.00000000
Si      -1.71792711       1.93249084       0.20725718       0.00000000
Si      -2.22840684      -0.25068192      -2.64389783       0.00000000
Si       0.49260960       2.49680903      -2.63821624       0.00000000
Si       2.54741391       1.81543090       2.14963472       0.00000000
Si      -3.54287952       1.07441509      -1.19113482       0.00000000
Si       0.50744979      -2.96502339      -2.62062056       0.00000000
Si       3.60083934       1.88104702       0.01311929       0.00000000
