10
Lattice="16.28999089631971 0.0 0.0 0.0 16.28999089631971 0.0 0.0 0.0 34.433804113860816" Properties=species:S:1:pos:R:3:initial_magmoms:R:1 pbc="T T T"
Si      -0.18112851       2.02699728       1.08576732       0.00000000
Si       1.05011856      -1.29928225       1.61566943       0.00000000
Si       1.46899962       0.20181681      -1.83821523       0.00000000
Si      -2.25968364      -0.66437136      -0.33800241       0.00000000
Si      -0.79022790      -1.11281225       3.05775795       0.00000000
Si      -1.83026295      -2.07379682      -2.22032736       0.00000000
Si       0.90328050      -3.55376843       0.60066361       0.00000000
Si      -2.69192250      -1.78233777       1.85171328       0.00000000
Si       3.09000123       1.76924061      -1.24096056       0.00000000
Si       2.97913149      -0.00177561       2.41012660       0.00000000
