10
Lattice="16.28999089631971 0.0 0.0 0.0 16.28999089631971 0.0 0.0 0.0 34.433804113860816" Properties=species:S:1:pos:R:3:initial_magmoms:R:1 pbc="T T T"
Si      -1.05011856       1.29928225      -1.61566943       0.00000000
Si      -1.84034646       0.18647000       1.44208852       0.00000000
Si       1.92901293       1.29750664       0.79445717       0.00000000
Si      -0.14683806      -2.25448617      -1.01500581       0.00000000
Si       3.30183639      -0.65966518       0.92489250       0.00000000
Si      -1.23124707       3.32627953      -0.52990211       0.00000000
Si      -1.09705005      -0.92813252       3.38408729       0.00000000
Si      -1.26597735      -3.39517713       0.71467400       0.00000000
Si      -3.74204106      -0.48305552       0.23604386       0.00000000
Si       0.10205685      -2.79194214       2.55932835       0.00000000
