10
Lattice="16.28999089631971 0.0 0.0 0.0 16.28999089631971 0.0 0.0 0.0 34.433804113860816" Properties=species:S:1:pos:R:3:initial_magmoms:R:1 pbc="T T T"
Si      -0.02704140       2.18514060       0.90678030       0.00000000
Si      -0.41876703       0.05636340      -2.34986741       0.00000000
Si       1.75790277      -1.55603709       0.55190532       0.00000000
Si      -1.98283509      -0.83922822       1.17519196       0.00000000
Si       1.15784433       1.86336423      -2.63101958       0.00000000
Si      -0.88089804      -0.86703525       3.26656465       0.00000000
Si      -0.67414536       1.47760074       3.09704694       0.00000000
Si       0.13281237      -2.21111663      -2.72051308       0.00000000
Si       0.87610878      -3.32571916      -0.77851431       0.00000000
Si       1.00812294      -2.24524907       2.70646408       0.00000000
