10
Lattice="16.28999089631971 0.0 0.0 0.0 16.28999089631971 0.0 0.0 0.0 34.433804113860816" Properties=species:S:1:pos:R:3:initial_magmoms:R:1 pbc="T T T"
Si      -0.82373643       0.06237441      -2.24091879       0.00000000
Si       0.62920125       1.96936326       1.21907584       0.00000000
Si      -2.02116546      -0.73620863       1.15653713       0.00000000
Si       1.50257331      -1.94781811       0.15308283       0.00000000
Si       1.76945238       0.53074449       2.75725539       0.00000000
Si      -2.43685368       1.66141710      -1.68071492       0.00000000
Si       3.11453397      -0.76481876       1.38731950       0.00000000
Si      -2.43993249      -2.60692847      -0.42673837       0.00000000
Si      -0.94705173      -2.19594502       2.73767976       0.00000000
Si      -1.42610805      -2.22867467      -2.60581402       0.00000000
