10
Lattice="16.28999089631971 0.0 0.0 0.0 16.28999089631971 0.0 0.0 0.0 34.433804113860816" Properties=species:S:1:pos:R:3:initial_magmoms:R:1 pbc="T T T"
Si      -1.35720135      -1.35597960      -1.35590066       0.00000000
Si       1.35685926      -1.35681039       1.35707141       0.00000000
Si       1.35581670       1.35783666      -1.35831103       0.00000000
Si      -1.35783666       1.35803214       1.35741575       0.00000000
Si      -0.00513135      -2.71322330      -2.71321311       0.00000000
Si       2.71438641      -2.71364847       0.00041321       0.00000000
Si      -2.71316466      -0.00830790      -2.71620885       0.00000000
Si      -2.71508688      -2.71435383      -0.00103301       0.00000000
Si       2.71257822      -0.00039096      -2.71700083       0.00000000
Si      -0.00127062       2.71523349       2.71469377       0.00000000
