10
Lattice="16.28999089631971 0.0 0.0 0.0 16.28999089631971 0.0 0.0 0.0 34.433804113860816" Properties=species:S:1:pos:R:3:initial_magmoms:R:1 pbc="T T T"
Si       1.40633199       0.88719575      -1.63395379       0.00000000
Si      -1.45559295      -1.55286447      -1.05715281       0.00000000
Si       0.81751365      -0.10745536       2.27762525       0.00000000
Si      -1.89675384       1.58585105      -0.02503339       0.00000000
Si      -0.39674295       2.02134791       2.65080701       0.00000000
Si       1.56217842       2.99742842      -0.65840914       0.00000000
Si      -0.45265023       3.43727471       0.56953544       0.00000000
Si      -0.14661000       1.17480874      -3.35392326       0.00000000
Si      -2.21440233      -2.74424991       1.00068134       0.00000000
Si      -2.12015816       2.06086745      -2.36226358       0.00000000
