10
Lattice="16.28999089631971 0.0 0.0 0.0 16.28999089631971 0.0 0.0 0.0 34.433804113860816" Properties=species:S:1:pos:R:3:initial_magmoms:R:1 pbc="T T T"
Si       1.35687555      -1.35676152       1.35748462       0.00000000
Si      -1.35685926       1.35803214       1.35710585       0.00000000
Si       1.35705474       1.35803214      -1.35758792       0.00000000
Si      -1.35747828      -1.35819504      -1.35779452       0.00000000
Si      -0.00030951       2.71738377       2.71145699       0.00000000
Si       2.71358820      -0.00019548       2.71565791       0.00000000
Si      -2.71399545       0.00131949       2.71534801       0.00000000
Si      -2.71479366      -2.71461447       0.00010330       0.00000000
Si       2.71490769      -2.71459818      -0.00037877       0.00000000
Si      -0.00086337      -2.71511946       2.71452160       0.00000000
