10
Lattice="16.28999089631971 0.0 0.0 0.0 16.28999089631971 0.0 0.0 0.0 34.433804113860816" Properties=species:S:1:pos:R:3:initial_magmoms:R:1 pbc="T T T"
Si      -1.35358497       1.35736425      -1.36295960       0.00000000
Si      -1.35058761      -1.37570679       1.35149313       0.00000000
Si       1.36031274      -1.36021500      -1.35875867       0.00000000
Si       1.38771252       1.36529748       1.37036287       0.00000000
Si      -2.70363501       2.70216891      -0.00506177       0.00000000
Si       0.05269815      -2.67457365       2.73893518       0.00000000
Si      -2.68216479      -0.01358586       2.73397671       0.00000000
Si      -2.70787041      -2.71702539       0.00110188       0.00000000
Si      -2.71013472      -0.00198738      -2.71731074       0.00000000
Si       2.71379997       2.71410948      -0.00426979       0.00000000
