10
Lattice="16.28999089631971 0.0 0.0 0.0 16.28999089631971 0.0 0.0 0.0 34.433804113860816" Properties=species:S:1:pos:R:3:initial_magmoms:R:1 pbc="T T T"
Si      -0.50709141      -2.30459517       0.12234337       0.00000000
Si       2.14314498      -0.75367314      -0.85585268       0.00000000
Si       0.16133616       1.62922806       1.86138919       0.00000000
Si       0.53292735       0.38107197      -2.48743053       0.00000000
Si      -3.43593567       0.62988543      -0.24720042       0.00000000
Si      -1.26644976       2.13389226      -2.49624559       0.00000000
Si       0.18078642      -0.00905724       3.57774311       0.00000000
Si      -2.86067061      -2.14824375      -0.36978483       0.00000000
Si       1.94074173      -3.04455213      -0.48630889       0.00000000
Si      -2.34391923       2.78071929      -0.53100399       0.00000000
