10
Lattice="16.28999089631971 0.0 0.0 0.0 16.28999089631971 0.0 0.0 0.0 34.433804113860816" Properties=species:S:1:pos:R:3:initial_magmoms:R:1 pbc="T T T"
Si      -0.01945026       1.63828530      -1.71635393       0.00000000
Si      -2.37666213      -0.04235400       0.18122521       0.00000000
Si       0.71962704       0.69162453       2.18069403       0.00000000
Si       0.74328012      -2.29508181      -0.29427145       0.00000000
Si      -0.18078642       0.00905724      -3.57774311       0.00000000
Si      -2.68007967      -2.04703398       1.36860674       0.00000000
Si      -1.43488836      -3.37255128      -0.09056096       0.00000000
Si      -0.98515404       2.13759009       2.82333248       0.00000000
Si      -2.99617083       1.49149611       1.81352617       0.00000000
Si       2.03525631       2.80306917      -1.68371066       0.00000000
