10
Lattice="16.28999089631971 0.0 0.0 0.0 16.28999089631971 0.0 0.0 0.0 34.433804113860816" Properties=species:S:1:pos:R:3:initial_magmoms:R:1 pbc="T T T"
Si      -0.15669351      -1.74571785       1.52593488       0.00000000
Si       0.50723802      -0.33616044      -2.25689608       0.00000000
Si       2.11320396       0.76276296       0.71746314       0.00000000
Si      -1.64520855       1.69782525      -0.14035226       0.00000000
Si       0.86304420       1.97068275      -2.65718928       0.00000000
Si       1.84757922      -2.79479385       0.89335111       0.00000000
Si       2.23107840       2.57391774      -0.81253493       0.00000000
Si      -0.68093829       3.35482776       1.24405960       0.00000000
Si      -1.50377877      -0.98225442      -3.26670239       0.00000000
Si      -1.39792635       2.59804323      -2.43171661       0.00000000
