10
Lattice="16.28999089631971 0.0 0.0 0.0 16.28999089631971 0.0 0.0 0.0 34.433804113860816" Properties=species:S:1:pos:R:3:initial_magmoms:R:1 pbc="T T T"
Si      -1.35760860      -1.35490446       1.35483321       0.00000000
Si       1.35720135       1.35641943       1.35779452       0.00000000
Si       1.35767376      -1.35692442      -1.35683038       0.00000000
Si      -1.35769005       1.35892809      -1.35748462       0.00000000
Si      -2.70765864      -0.01009980       2.71273104       0.00000000
Si       2.70977634       0.00184077       2.71352302       0.00000000
Si      -2.71415835      -2.71425609       0.00048207       0.00000000
Si      -0.00024435      -2.71425609      -2.71421169       0.00000000
Si      -2.71511946       0.00122175      -2.71448716       0.00000000
Si       2.71541268      -2.71454931       0.00082641       0.00000000
