10
Lattice="16.28999089631971 0.0 0.0 0.0 16.28999089631971 0.0 0.0 0.0 34.433804113860816" Properties=species:S:1:pos:R:3:initial_magmoms:R:1 pbc="T T T"
Si      -0.94470597      -0.66352428      -2.04213233       0.00000000
Si       1.04705604       2.08251360       0.55541757       0.00000000
Si      -2.23213725       0.27083754       0.87141677       0.00000000
Si       1.56054942      -1.81501551       0.35026085       0.00000000
Si      -2.51017497       2.19649473      -0.49484848       0.00000000
Si      -2.28866355       1.18570023      -2.61469794       0.00000000
Si      -0.66375234       3.61179504      -0.06101673       0.00000000
Si       3.61525599      -0.65023164       0.38290412       0.00000000
Si      -2.03672241      -2.81435814      -1.75832876       0.00000000
Si       2.11064643       2.93804811      -1.48175629       0.00000000
