10
Lattice="16.28999089631971 0.0 0.0 0.0 16.28999089631971 0.0 0.0 0.0 34.433804113860816" Properties=species:S:1:pos:R:3:initial_magmoms:R:1 pbc="T T T"
Si       1.03840605       2.04408549      -0.67121852       0.00000000
Si      -1.31825196      -0.82570752      -1.91021635       0.00000000
Si       1.76340879      -1.73001429       0.01167307       0.00000000
Si      -0.82427400       0.89759529       2.22019277       0.00000000
Si       1.01457378      -1.62067581      -2.49576352       0.00000000
Si      -1.01053386       3.46959081      -0.40535497       0.00000000
Si       3.28334724      -0.99940779      -1.94609639       0.00000000
Si      -2.02435830       3.09133701       1.77372067       0.00000000
Si       3.11011938       2.64316653       0.53238134       0.00000000
Si       2.60413569      -2.36131695       2.19381332       0.00000000
