10
Lattice="16.28999089631971 0.0 0.0 0.0 16.28999089631971 0.0 0.0 0.0 34.433804113860816" Properties=species:S:1:pos:R:3:initial_magmoms:R:1 pbc="T T T"
Si       1.35659862       1.35510657       1.35703698       0.00000000
Si       1.35762489      -1.35733386      -1.35751905       0.00000000
Si      -1.35731538       1.35810719      -1.35717471       0.00000000
Si      -1.35760860      -1.35917463       1.35700254       0.00000000
Si      -0.00503361      -2.71375329       2.71273104       0.00000000
Si      -2.71215468       0.00113811       2.71552018       0.00000000
Si      -2.71450044       0.00139063      -2.71438386       0.00000000
Si      -2.71484253       2.71494527      -0.00051651       0.00000000
Si       2.71543720      -0.00093864      -2.71462490       0.00000000
Si       2.71530851       2.71497785       0.00010330       0.00000000
