10
Lattice="16.28999089631971 0.0 0.0 0.0 16.28999089631971 0.0 0.0 0.0 34.433804113860816" Properties=species:S:1:pos:R:3:initial_magmoms:R:1 pbc="T T T"
Si       1.32168915       1.27508346      -1.46099066       0.00000000
Si      -1.90268829      -0.75232107      -1.25903629       0.00000000
Si       1.32925923      -1.36624230       1.49383223       0.00000000
Si      -1.36726857       1.37062431       1.49540585       0.00000000
Si      -0.30721311       1.71598860      -3.21112417       0.00000000
Si       2.64121729       2.68227882       0.05416785       0.00000000
Si      -2.75965632      -2.63046359       0.17294388       0.00000000
Si       2.63412299      -2.84167973       0.04346582       0.00000000
Si      -1.16882379      -1.43172810      -3.44214069       0.00000000
Si      -2.69177589       2.84082939      -0.01113590       0.00000000
