10
Lattice="16.28999089631971 0.0 0.0 0.0 16.28999089631971 0.0 0.0 0.0 34.433804113860816" Properties=species:S:1:pos:R:3:initial_magmoms:R:1 pbc="T T T"
Si       1.35863487       1.35513252      -1.35769122       0.00000000
Si       1.35759231      -1.35762489       1.35717471       0.00000000
Si      -1.35803214       1.35783666       1.35786339       0.00000000
Si      -1.35868374      -1.35791811      -1.35810443       0.00000000
Si      -2.71063971      -0.00043983      -2.71534801       0.00000000
Si       2.71303434       0.00017919      -2.71510697       0.00000000
Si       0.00096111      -2.71319724       2.71569235       0.00000000
Si      -2.71490769       2.71459818       0.00037877       0.00000000
Si       2.71471221       2.71508688       0.00030990       0.00000000
Si       2.71487511      -2.71511946       0.00020660       0.00000000
