10
Lattice="16.28999089631971 0.0 0.0 0.0 16.28999089631971 0.0 0.0 0.0 34.433804113860816" Properties=species:S:1:pos:R:3:initial_magmoms:R:1 pbc="T T T"
Si       1.35663120       1.35557235      -1.35851763       0.00000000
Si      -1.36379880       1.35739683       1.35469548       0.00000000
Si      -1.35860229      -1.35936792      -1.35841433       0.00000000
Si       1.35931905      -1.36189287       1.36072140       0.00000000
Si      -0.00092853       2.69819415       2.71541688       0.00000000
Si       2.71645524       2.71210581      -0.00106745       0.00000000
Si      -0.00096111       2.71319724      -2.71569235       0.00000000
Si       2.72003904       0.01195686       2.70908105       0.00000000
Si       2.71391400      -0.00192222      -2.71548574       0.00000000
Si      -2.71673217       2.71267596      -0.00079198       0.00000000
