10
Lattice="16.28999089631971 0.0 0.0 0.0 16.28999089631971 0.0 0.0 0.0 34.433804113860816" Properties=species:S:1:pos:R:3:initial_magmoms:R:1 pbc="T T T"
Si       0.20240325       2.29087899      -0.36954379       0.00000000
Si       0.62320653      -0.11890071       2.26863802       0.00000000
Si       1.54978173       0.00588069      -1.87013538       0.00000000
Si      -2.44783314       0.73995696       0.60865226       0.00000000
Si       0.22913514      -1.31999499      -3.27544858       0.00000000
Si       2.10035115       2.68732872       0.96944986       0.00000000
Si      -1.65960891      -3.19645638       0.16066822       0.00000000
Si      -1.94074173       3.04455213       0.48630889       0.00000000
Si       2.86181091       0.83699649       2.26846585       0.00000000
Si      -0.60618348      -3.13084026      -1.97584722       0.00000000
