10
Lattice="16.28999089631971 0.0 0.0 0.0 16.28999089631971 0.0 0.0 0.0 34.433804113860816" Properties=species:S:1:pos:R:3:initial_magmoms:R:1 pbc="T T T"
Si       0.68507595      -0.15081282      -2.18792514       0.00000000
Si       1.81542276      -0.85717980       1.17057783       0.00000000
Si      -1.47110103       1.83594816       0.26035414       0.00000000
Si      -1.96682202      -1.35426915      -0.25470699       0.00000000
Si       0.94009590      -0.25682814       3.29486926       0.00000000
Si      -3.41638767       0.51997680      -0.04042531       0.00000000
Si       1.40250384      -2.45229660      -2.37348901       0.00000000
Si       1.77359004      -3.22970427       0.93783961       0.00000000
Si      -1.43294985       2.51411715       2.47892538       0.00000000
Si      -1.28098044       0.44437491       3.56782617       0.00000000
