10
Lattice="16.28999089631971 0.0 0.0 0.0 16.28999089631971 0.0 0.0 0.0 34.433804113860816" Properties=species:S:1:pos:R:3:initial_magmoms:R:1 pbc="T T T"
Si      -1.35733167       1.31092146       1.46762465       0.00000000
Si      -1.82169441      -0.80643645      -1.36212771       0.00000000
Si       1.89451464       0.89257797      -1.21751016       0.00000000
Si       1.33397181      -1.43096247       1.46808606       0.00000000
Si       2.69744385       2.60641629       0.17826735       0.00000000
Si      -2.67687054      -2.65245183      -0.05052475       0.00000000
Si       3.58528958      -0.86986971      -0.96921330       0.00000000
Si      -2.72647359       2.70226665       0.01964450       0.00000000
Si       2.65612264      -2.81100240       0.01477900       0.00000000
Si      -0.00648342       2.64655485       2.84745682       0.00000000
