10
Lattice="16.28999089631971 0.0 0.0 0.0 16.28999089631971 0.0 0.0 0.0 34.433804113860816" Properties=species:S:1:pos:R:3:initial_magmoms:R:1 pbc="T T T"
Si       0.32949783      -2.32060824      -0.15185316       0.00000000
Si       1.91228540       1.36498797      -0.15219750       0.00000000
Si      -1.19845530       0.92229093       1.81228656       0.00000000
Si      -0.31674276       0.89153541      -2.18399968       0.00000000
Si      -0.61757019       3.16591263       1.41722730       0.00000000
Si       1.71567813       2.20172382      -2.34339385       0.00000000
Si       0.45483309      -2.66123214      -2.50877950       0.00000000
Si      -3.44730609       0.22889079       1.46750068       0.00000000
Si       1.79376750       3.03230205       1.42741971       0.00000000
Si       2.34283499      -2.85368220       0.99400118       0.00000000
