10
Lattice="16.28999089631971 0.0 0.0 0.0 16.28999089631971 0.0 0.0 0.0 34.433804113860816" Properties=species:S:1:pos:R:3:initial_magmoms:R:1 pbc="T T T"
Si       1.69587438      -1.64631627       0.12155140       0.00000000
Si      -1.85321556       0.29123262       1.49880103       0.00000000
Si      -0.93058254       0.37287810      -2.18737419       0.00000000
Si       1.49855361       1.72182042       0.80151611       0.00000000
Si      -0.34969743       2.61649980      -2.58243345       0.00000000
Si       3.70627541      -0.61906887      -0.47914665       0.00000000
Si       3.32249930       1.70973324      -0.66347091       0.00000000
Si       1.99717422      -2.23748037       2.34222310       0.00000000
Si       0.20978262       3.69045063       1.04716700       0.00000000
Si      -0.17813115      -2.24272575       3.13303029       0.00000000
