10
Lattice="16.28999089631971 0.0 0.0 0.0 16.28999089631971 0.0 0.0 0.0 34.433804113860816" Properties=species:S:1:pos:R:3:initial_magmoms:R:1 pbc="T T T"
Si       0.48847194      -0.72997119      -2.23675230       0.00000000
Si       1.82169441       0.80643645       1.36212771       0.00000000
Si      -0.85517613      -1.84601538       1.31160297       0.00000000
Si      -1.84902903       1.67791887       0.10171751       0.00000000
Si       0.46436274       2.11735791       2.82975236       0.00000000
Si      -2.27302515      -0.62827272       2.82308942       0.00000000
Si       1.52938665      -2.97085617      -1.88838531       0.00000000
Si      -0.90477918       3.50870310       1.38177221       0.00000000
Si      -1.66488687      -3.56448006      -0.18373888       0.00000000
Si      -3.73402638       0.61717923       1.33536919       0.00000000
