10
Lattice="16.28999089631971 0.0 0.0 0.0 16.28999089631971 0.0 0.0 0.0 34.433804113860816" Properties=species:S:1:pos:R:3:initial_magmoms:R:1 pbc="T T T"
Si      -1.35767376       1.35692442       1.35683038       0.00000000
Si      -1.35791811      -1.35733167      -1.35738132       0.00000000
Si       1.35773892      -1.35762489       1.35765679       0.00000000
Si       1.35873261       1.35666378      -1.35796669       0.00000000
Si      -2.71528236       0.00201996       2.71166359       0.00000000
Si      -0.00047241       2.71334385       2.71462490       0.00000000
Si       2.71469592      -0.00291591      -2.71465933       0.00000000
Si       2.71464705      -2.71487511       0.00013774       0.00000000
Si       2.71476108       2.71518462       0.00010330       0.00000000
Si      -2.71497285      -2.71536381       0.00020660       0.00000000
