10
Lattice="16.28999089631971 0.0 0.0 0.0 16.28999089631971 0.0 0.0 0.0 34.433804113860816" Properties=species:S:1:pos:R:3:initial_magmoms:R:1 pbc="T T T"
Si       1.43875139      -1.18552104      -1.40262736       0.00000000
Si       1.36748101       1.38261375       1.31695601       0.00000000
Si      -0.99567738      -1.50833997       1.57982382       0.00000000
Si      -1.29810123       1.53894888      -1.37904019       0.00000000
Si      -0.48053871       1.50679242       2.81145281       0.00000000
Si      -2.54066985      -2.49017085       0.00533724       0.00000000
Si       0.06991668      -2.53977390      -2.76951241       0.00000000
Si       2.90974328      -2.48015250       0.01439334       0.00000000
Si      -2.65611708       0.17901081      -2.77498739       0.00000000
Si      -2.28973869      -0.03301983       3.09883750       0.00000000
