10
Lattice="16.28999089631971 0.0 0.0 0.0 16.28999089631971 0.0 0.0 0.0 34.433804113860816" Properties=species:S:1:pos:R:3:initial_magmoms:R:1 pbc="T T T"
Si      -0.56420415       1.64253699       1.58157994       0.00000000
Si      -0.58088511      -2.24362170       0.39505926       0.00000000
Si      -1.13673249       0.70377687      -2.00597681       0.00000000
Si       2.41133769      -0.13361058       0.01019241       0.00000000
Si       2.52985559      -1.80092466      -1.56942480       0.00000000
Si       0.61757019      -3.16591263      -1.41722730       0.00000000
Si       0.38910294       3.55129886       0.50283712       0.00000000
Si       0.34969743      -2.61649980       2.58243345       0.00000000
Si      -2.81067660       1.41902190       2.13727298       0.00000000
Si       0.55948005       1.07395083       3.62960045       0.00000000
