10
Lattice="16.28999089631971 0.0 0.0 0.0 16.28999089631971 0.0 0.0 0.0 34.433804113860816" Properties=species:S:1:pos:R:3:initial_magmoms:R:1 pbc="T T T"
Si       1.44151417       1.81291410       0.29826578       0.00000000
Si       1.28877099      -1.96863021      -0.24565090       0.00000000
Si      -1.12368420       0.56858616      -2.04802051       0.00000000
Si      -1.00018971      -0.20647575       2.20861986       0.00000000
Si       0.26816598       3.19585432       1.80801676       0.00000000
Si      -3.37015665       0.34507107      -1.49232747       0.00000000
Si       2.18323860      -2.33763129       1.92216489       0.00000000
Si      -3.48803109      -1.46608371       0.03767060       0.00000000
Si       1.75427403       2.83158711      -1.83539165       0.00000000
Si      -0.55948005      -1.07395083      -3.62960045       0.00000000
