10
Lattice="16.28999089631971 0.0 0.0 0.0 16.28999089631971 0.0 0.0 0.0 34.433804113860816" Properties=species:S:1:pos:R:3:initial_magmoms:R:1 pbc="T T T"
Si      -0.07782710       1.02947913       2.08975431       0.00000000
Si       0.75867091      -2.20322250       0.29960870       0.00000000
Si      -2.34652141      -0.11986182      -0.40046537       0.00000000
Si       1.44565116       1.62781083      -1.00013040       0.00000000
Si      -1.07453305      -3.39282256      -0.67631472       0.00000000
Si      -2.72330911       1.90672821      -1.45482904       0.00000000
Si       2.17811472       1.63100367       2.50306349       0.00000000
Si      -1.07578738       3.13207830       1.75519528       0.00000000
Si      -2.68250266      -1.98946512      -1.78270790       0.00000000
Si       0.98207523      -2.67823890       2.63683889       0.00000000
