10
Lattice="16.28999089631971 0.0 0.0 0.0 16.28999089631971 0.0 0.0 0.0 34.433804113860816" Properties=species:S:1:pos:R:3:initial_magmoms:R:1 pbc="T T T"
Si       0.80292921       1.71383832       1.39577751       0.00000000
Si      -1.89451464      -0.89257797       1.21751016       0.00000000
Si       1.69077494      -1.76244768       0.24829686       0.00000000
Si      -0.27145819       1.20063816      -2.25895761       0.00000000
Si       0.69972066      -1.01595843      -2.95937601       0.00000000
Si       2.16655697       0.40557213       2.73676833       0.00000000
Si      -0.56054283      -2.32354044       2.68559622       0.00000000
Si       2.45143649       2.68229511      -0.02117230       0.00000000
Si       2.69840918      -2.02981545      -1.81056036       0.00000000
Si       3.52261802      -0.85027284       1.35781078       0.00000000
