10
Lattice="16.28999089631971 0.0 0.0 0.0 16.28999089631971 0.0 0.0 0.0 34.433804113860816" Properties=species:S:1:pos:R:3:initial_magmoms:R:1 pbc="T T T"
Si       1.35696160       1.35707103       1.35762235       0.00000000
Si      -1.35533873      -1.35879777       1.35758792       0.00000000
Si       1.35734604      -1.35772263      -1.35669264       0.00000000
Si      -1.35804287       1.35738054      -1.35672707       0.00000000
Si       0.00092882      -2.71521720       2.71187019       0.00000000
Si       2.71438287      -0.00017919      -2.71345415       0.00000000
Si      -0.00167213      -2.71370223      -2.71459046       0.00000000
Si      -2.71412021      -0.00257382      -2.71472820       0.00000000
Si       2.71472496       2.71464705       0.00055094       0.00000000
Si       2.71439916      -2.71507059       0.00092971       0.00000000
