10
Lattice="16.28999089631971 0.0 0.0 0.0 16.28999089631971 0.0 0.0 0.0 34.433804113860816" Properties=species:S:1:pos:R:3:initial_magmoms:R:1 pbc="T T T"
Si      -1.92927846       1.20459663       0.34523351       0.00000000
Si       0.06382422      -1.25975457       1.93504314       0.00000000
Si      -0.66253059      -1.43109279      -1.75843206       0.00000000
Si       1.26102519       2.00208987      -0.07224216       0.00000000
Si      -0.91569348       0.49352184      -3.14656278       0.00000000
Si      -2.12588572       2.04133248      -1.84596284       0.00000000
Si       2.82393666       1.40463783      -1.73381187       0.00000000
Si      -1.49872887      -3.01407354       1.49143219       0.00000000
Si       2.34929493       2.15111079       2.00694096       0.00000000
Si       2.21219829      -1.96182099       2.41315677       0.00000000
