10
Lattice="16.28999089631971 0.0 0.0 0.0 16.28999089631971 0.0 0.0 0.0 34.433804113860816" Properties=species:S:1:pos:R:3:initial_magmoms:R:1 pbc="T T T"
Si      -1.09946423      -1.49294592      -1.40503773       0.00000000
Si       2.17297197      -0.80860302      -0.30890583       0.00000000
Si      -0.91903619      -0.46630125       2.10314906       0.00000000
Si      -0.70361723       2.09735379      -0.77792894       0.00000000
Si       1.69165134      -3.12965109       0.24289619       0.00000000
Si      -2.70657440       2.36205000       0.51230642       0.00000000
Si       2.36123550      -0.60457077      -2.69114103       0.00000000
Si      -3.27476960      -1.49819130      -0.61423054       0.00000000
Si      -2.61994418      -2.13425064       1.53943294       0.00000000
Si       1.07965233      -1.48015827       3.25196471       0.00000000
