10
Lattice="16.28999089631971 0.0 0.0 0.0 16.28999089631971 0.0 0.0 0.0 34.433804113860816" Properties=species:S:1:pos:R:3:initial_magmoms:R:1 pbc="T T T"
Si       0.91903619       0.46630125      -2.10314906       0.00000000
Si      -1.70090799      -1.66794939      -0.56371612       0.00000000
Si       1.99868852      -1.01385702       1.14881565       0.00000000
Si      -0.97117885       2.21659659       0.70041840       0.00000000
Si      -0.69972066       1.01595843       2.95937601       0.00000000
Si       0.99105428      -0.74648925       3.20767287       0.00000000
Si       1.55299412      -3.16902402       0.18415209       0.00000000
Si      -0.18042804      -1.02664467      -3.50818679       0.00000000
Si      -1.78753821       2.82835125      -1.59084264       0.00000000
Si      -2.35573341      -1.03189005      -2.71737960       0.00000000
