10
Lattice="16.28999089631971 0.0 0.0 0.0 16.28999089631971 0.0 0.0 0.0 34.433804113860816" Properties=species:S:1:pos:R:3:initial_magmoms:R:1 pbc="T T T"
Si      -1.34252406      -1.34265438       1.36738779       0.00000000
Si       1.25584497      -1.43395983      -1.39879488       0.00000000
Si       1.37378457       1.36506032       1.36298026       0.00000000
Si      -1.40386568       1.24469025      -1.47561329       0.00000000
Si       1.61256339       0.28469774      -3.03599030       0.00000000
Si       0.39830679       2.41350101      -2.66280854       0.00000000
Si       2.72412783      -2.69060301       0.01015109       0.00000000
Si      -2.72589432      -2.69097768      -0.00684889       0.00000000
Si      -2.70149998       0.01071090       2.72542335       0.00000000
Si      -2.70872945       2.72012768      -0.02524688       0.00000000
