10
Lattice="16.28999089631971 0.0 0.0 0.0 16.28999089631971 0.0 0.0 0.0 34.433804113860816" Properties=species:S:1:pos:R:3:initial_magmoms:R:1 pbc="T T T"
Si       0.11851790      -1.66731408      -1.57961721       0.00000000
Si       0.88688950       1.92726990      -0.98663234       0.00000000
Si       1.26085903      -0.77315598       1.90877013       0.00000000
Si      -2.41133769       0.13361058      -0.01019241       0.00000000
Si      -0.56308666      -0.76106880       3.37375714       0.00000000
Si      -2.99222280      -2.11001112       0.38486684       0.00000000
Si      -1.79376750      -3.03230205      -1.42741971       0.00000000
Si      -2.97554184       1.77614757       1.57138753       0.00000000
Si       2.34492595       1.28687742      -2.71510697       0.00000000
Si      -0.95343415       3.34798826      -1.58075353       0.00000000
