10
Lattice="16.28999089631971 0.0 0.0 0.0 16.28999089631971 0.0 0.0 0.0 34.40785480372833" Properties=species:S:1:pos:R:3:initial_magmoms:R:1 pbc="T T T"
Si       1.87240518       1.40535459       0.04720760       0.00000000
Si      -1.29972860       1.06060932      -1.64314802       0.00000000
Si       0.88436781      -2.20566600      -0.42393942       0.00000000
Si      -0.89207298       0.55666188       2.17884422       0.00000000
Si       1.03959522      -0.07952778       3.33202411       0.00000000
Si       2.99121867       0.37789542       1.90743490       0.00000000
Si      -3.41514053       0.95604381      -0.68261781       0.00000000
Si       1.01506248       3.51519371       0.60612911       0.00000000
Si      -0.42684687       2.87690101       2.35566628       0.00000000
Si       0.79451217      -3.33000180       1.66124657       0.00000000
