10
Lattice="16.28999089631971 0.0 0.0 0.0 16.28999089631971 0.0 0.0 0.0 34.40785480372833" Properties=species:S:1:pos:R:3:initial_magmoms:R:1 pbc="T T T"
Si       1.93166820      -0.63618966       1.15317990       0.00000000
Si       0.46522611       2.32023913       0.17682206       0.00000000
Si       0.89207298      -0.55666188      -2.17884422       0.00000000
Si      -2.15139491      -0.47543994       1.04992187       0.00000000
Si      -2.13792308      -2.61895959      -0.00192684       0.00000000
Si       2.76447816       0.84869271      -2.13163661       0.00000000
Si       1.84665069       0.81969651       2.97800150       0.00000000
Si      -1.64134033       3.39650477      -0.01675663       0.00000000
Si      -2.52306755       0.39938193      -2.86146203       0.00000000
Si       1.90713546       2.95853183      -1.57271511       0.00000000
