10
Lattice="16.28999089631971 0.0 0.0 0.0 16.28999089631971 0.0 0.0 0.0 34.40785480372833" Properties=species:S:1:pos:R:3:initial_magmoms:R:1 pbc="T T T"
Si       0.00926901       2.29267089      -0.47472544       0.00000000
Si       2.24520183      -0.39231207       0.61276983       0.00000000
Si      -0.23581404      -0.95780313      -2.14550299       0.00000000
Si      -1.34421822      -1.30903182       1.57027215       0.00000000
Si      -2.44864438      -1.51298262      -1.87780973       0.00000000
Si      -2.04897249      -3.03138981       0.01469216       0.00000000
Si       3.51199368      -0.89971299      -1.27684180       0.00000000
Si       2.26781235      -2.16459891       2.23424089       0.00000000
Si       0.62051868      -3.14760267      -2.13149898       0.00000000
Si      -1.92239919       2.92886055      -1.62790534       0.00000000
