10
Lattice="16.28999089631971 0.0 0.0 0.0 16.28999089631971 0.0 0.0 0.0 34.40785480372833" Properties=species:S:1:pos:R:3:initial_magmoms:R:1 pbc="T T T"
Si      -1.35044100      -1.35682342       1.39503284       0.00000000
Si       1.36365219       1.35759231       1.39499844       0.00000000
Si       1.40602248      -1.41588770      -1.31295286       0.00000000
Si      -1.15588953       1.23074208      -2.05012092       0.00000000
Si      -2.68053579       2.68066611       0.05473949       0.00000000
Si      -2.72008791      -2.70782672       0.01860778       0.00000000
Si       2.72212416       2.71135647       0.00425969       0.00000000
Si      -2.70819621      -0.00490329       2.75927064       0.00000000
Si       2.55339234       0.03570768      -2.90407416       0.00000000
Si       0.00941562       2.71049310       2.76006202       0.00000000
