10
Lattice="16.28999089631971 0.0 0.0 0.0 16.28999089631971 0.0 0.0 0.0 34.40785480372833" Properties=species:S:1:pos:R:3:initial_magmoms:R:1 pbc="T T T"
Si       0.46649673      -0.43249950       2.30026960       0.00000000
Si      -1.43422047       1.94274540       0.24123360       0.00000000
Si       1.90943235       1.30855941      -0.98874467       0.00000000
Si      -1.58436540      -1.59565437      -1.16921397       0.00000000
Si      -3.03924159       0.16780329       0.82334602       0.00000000
Si       0.89669934       0.98210781      -3.20567840       0.00000000
Si      -1.34231229       0.75225591       3.13476377       0.00000000
Si      -1.06324830       2.92679172       2.32628196       0.00000000
Si      -0.44979948      -2.47325694       2.98264656       0.00000000
Si      -3.63260484      -0.41365197      -1.46137123       0.00000000
