10
Lattice="16.28999089631971 0.0 0.0 0.0 16.28999089631971 0.0 0.0 0.0 34.40785480372833" Properties=species:S:1:pos:R:3:initial_magmoms:R:1 pbc="T T T"
Si       0.15442920      -2.02821903      -1.24910905       0.00000000
Si       0.44655777       1.67065353      -1.65512196       0.00000000
Si      -2.13478821       0.03477915       1.09207151       0.00000000
Si       2.00795427      -0.03559365       1.44316946       0.00000000
Si       1.08517464      -3.08905836       0.67642440       0.00000000
Si      -1.73273472      -0.95977422       3.15279350       0.00000000
Si       3.18187683       1.81765449       0.69865188       0.00000000
Si       3.14877555      -1.90200574       0.68007163       0.00000000
Si      -2.60410311       2.25114768       1.57054741       0.00000000
Si       1.30209228      -1.42298037      -3.29070026       0.00000000
