10
Lattice="16.28999089631971 0.0 0.0 0.0 16.28999089631971 0.0 0.0 0.0 34.40785480372833" Properties=species:S:1:pos:R:3:initial_magmoms:R:1 pbc="T T T"
Si      -1.42442203      -1.29479308       1.31145612       0.00000000
Si       1.24791174      -1.45280608      -1.32948584       0.00000000
Si      -1.46840992       1.28967800      -1.31926671       0.00000000
Si       1.80108756       0.96319545       1.35081873       0.00000000
Si       2.61040734      -2.64412636       0.23001664       0.00000000
Si       2.59600698      -0.09014418      -2.68457115       0.00000000
Si      -0.11316663       2.62097173      -2.69155595       0.00000000
Si      -0.23996799      -2.27835070       2.98577768       0.00000000
Si       2.68622100       2.67438664       0.06124602       0.00000000
Si      -2.72519841      -2.70791800      -0.02411992       0.00000000
