10
Lattice="16.28999089631971 0.0 0.0 0.0 16.28999089631971 0.0 0.0 0.0 34.40785480372833" Properties=species:S:1:pos:R:3:initial_magmoms:R:1 pbc="T T T"
Si      -1.35764118      -1.35741312       1.35573905       0.00000000
Si       1.35806472       1.35759231       1.35632399       0.00000000
Si       1.35423657      -1.35290079      -1.36506359       0.00000000
Si      -1.35821133       1.35399222      -1.36544207       0.00000000
Si      -2.68995141      -0.02982699      -2.70532254       0.00000000
Si      -2.71459818      -0.00035838       2.71350817       0.00000000
Si       0.00037467       2.71500543       2.71371462       0.00000000
Si       2.71534752       0.00032580       2.71378343       0.00000000
Si       0.00034209      -2.71642266       2.71302646       0.00000000
Si      -2.71521720       2.71554300       0.00006882       0.00000000
