10
Lattice="16.28999089631971 0.0 0.0 0.0 16.28999089631971 0.0 0.0 0.0 34.40785480372833" Properties=species:S:1:pos:R:3:initial_magmoms:R:1 pbc="T T T"
Si      -1.35806472      -1.35759231      -1.35632399       0.00000000
Si       1.35728280      -1.35726651       1.35745945       0.00000000
Si      -1.35769005       1.35741312       1.35739063       0.00000000
Si       1.35752715       1.35870003      -1.35687451       0.00000000
Si      -0.00102627       2.71104696      -2.71354258       0.00000000
Si       0.00138465       2.71252935       2.71543501       0.00000000
Si       2.71355562       0.00063531       2.71495330       0.00000000
Si       2.71494027       2.71425609       0.00037849       0.00000000
Si       2.71467963      -2.71484253       0.00044730       0.00000000
Si      -2.71495656       2.71487511      -0.00020645       0.00000000
