10
Lattice="16.28999089631971 0.0 0.0 0.0 16.28999089631971 0.0 0.0 0.0 34.40785480372833" Properties=species:S:1:pos:R:3:initial_magmoms:R:1 pbc="T T T"
Si       0.66521844       2.03497938       0.87100092       0.00000000
Si       1.86442308      -0.34766118      -1.34496939       0.00000000
Si      -1.73848509      -0.16415433      -1.59243082       0.00000000
Si      -0.85346568      -1.53241659       1.62704514       0.00000000
Si      -3.14196633      -0.71912205       1.08728882       0.00000000
Si      -1.33863075       2.41891839       2.07558619       0.00000000
Si       1.32742323       1.08944262      -3.22023293       0.00000000
Si      -0.98207523       1.05197562      -3.49473895       0.00000000
Si      -2.05099245      -2.46672954      -2.14374818       0.00000000
Si       3.85750458      -0.27890109      -0.01716953       0.00000000
