10
Lattice="16.28999089631971 0.0 0.0 0.0 16.28999089631971 0.0 0.0 0.0 34.40785480372833" Properties=species:S:1:pos:R:3:initial_magmoms:R:1 pbc="T T T"
Si      -1.35741312       1.35741312      -1.35690892       0.00000000
Si       1.35754344      -1.35718506      -1.35704655       0.00000000
Si      -1.35860229      -1.35617508       1.35708096       0.00000000
Si       1.35729909       1.35782037       1.35783793       0.00000000
Si      -2.71278999      -0.00343719       2.71436837       0.00000000
Si       0.00058644      -2.71353933      -2.71440277       0.00000000
Si      -2.71378368       0.00000000      -2.71429955       0.00000000
Si       0.00175932       2.71369738      -2.71522856       0.00000000
Si      -2.71381626       2.71516492      -0.00034408       0.00000000
Si      -2.71476108      -2.71433754       0.00013763       0.00000000
