10
Lattice="16.28999089631971 0.0 0.0 0.0 16.28999089631971 0.0 0.0 0.0 34.40785480372833" Properties=species:S:1:pos:R:3:initial_magmoms:R:1 pbc="T T T"
Si      -1.35695700      -1.35635427      -1.35735622       0.00000000
Si       1.35713619      -1.35747828       1.35694333       0.00000000
Si      -1.35754344       1.35718506       1.35704655       0.00000000
Si       1.35769005       1.35899325      -1.35825083       0.00000000
Si      -2.71469592      -2.71482624      -0.00072257       0.00000000
Si      -2.71495656       2.71459818       0.00013763       0.00000000
Si      -0.00024435       2.71500543       2.71488448       0.00000000
Si       2.71523349       2.71500543      -0.00030967       0.00000000
Si      -2.71614573       0.00100998       2.71412751       0.00000000
Si       2.71568961       0.00001629       2.71460922       0.00000000
