10
Lattice="16.28999089631971 0.0 0.0 0.0 16.28999089631971 0.0 0.0 0.0 34.40785480372833" Properties=species:S:1:pos:R:3:initial_magmoms:R:1 pbc="T T T"
Si       1.72170639       1.44201753       0.79286064       0.00000000
Si      -1.11881349       1.02745917      -1.86022730       0.00000000
Si       1.23268059      -1.88240724      -0.90251854       0.00000000
Si      -1.95162345      -0.45742320       1.42458921       0.00000000
Si      -2.99121867      -0.37789542      -1.90743490       0.00000000
Si       3.19166712       1.20667069      -1.14306398       0.00000000
Si       0.37375776       3.33595484       1.33330512       0.00000000
Si       3.43934028      -1.10035692      -1.32903854       0.00000000
Si      -1.96089246      -2.75009409       1.89931465       0.00000000
Si       0.23097591      -2.56217265      -2.91950811       0.00000000
