10
Lattice="16.28999089631971 0.0 0.0 0.0 16.28999089631971 0.0 0.0 0.0 34.40785480372833" Properties=species:S:1:pos:R:3:initial_magmoms:R:1 pbc="T T T"
Si       1.31486364      -1.44401076      -1.31240922       0.00000000
Si      -1.34390871      -1.36743473       1.37763622       0.00000000
Si       1.37212299       1.34904006       1.37598465       0.00000000
Si      -1.40833566       1.33535646      -1.54215747       0.00000000
Si      -2.70275535       2.70588303      -0.01998409       0.00000000
Si      -2.67621894      -2.73378979       0.01523581       0.00000000
Si       2.71366965       2.70790299       0.00264597       0.00000000
Si      -2.69879688      -0.01182654       2.73440751       0.00000000
Si       0.01563840       2.70469386       2.73437310       0.00000000
Si       0.01609452      -2.72363328       2.73564620       0.00000000
