10
Lattice="16.28999089631971 0.0 0.0 0.0 16.28999089631971 0.0 0.0 0.0 34.40785480372833" Properties=species:S:1:pos:R:3:initial_magmoms:R:1 pbc="T T T"
Si       1.35488817      -1.35560819      -1.35677129       0.00000000
Si      -1.35909099      -1.35559190       1.35787234       0.00000000
Si       1.35607734       1.35959598       1.35818201       0.00000000
Si      -1.36243044       1.36394541      -1.36365286       0.00000000
Si       2.71489140      -2.71180674       0.00123868       0.00000000
Si      -0.00099369      -2.71358980       2.71584791       0.00000000
Si      -2.71464705      -2.71496860       0.00006882       0.00000000
Si       2.71428867       0.00071676       2.71550383       0.00000000
Si      -2.71632492       0.00042354       2.71443718       0.00000000
Si       2.71443528       2.71652040      -0.00003441       0.00000000
