10
Lattice="16.28999089631971 0.0 0.0 0.0 16.28999089631971 0.0 0.0 0.0 34.40785480372833" Properties=species:S:1:pos:R:3:initial_magmoms:R:1 pbc="T T T"
Si       1.34991972       1.36009771      -1.37607411       0.00000000
Si      -1.36370106      -1.35001523      -1.37700312       0.00000000
Si      -1.18374543       1.51760572       1.37493865       0.00000000
Si       1.41198462      -1.34225757       1.46646359       0.00000000
Si       0.65239821       2.19865804       2.71832527       0.00000000
Si       2.58395238       0.54765025       2.50379218       0.00000000
Si      -0.26927370      -2.41549164       2.86301038       0.00000000
Si       2.70210375      -2.70375948      -0.01252447       0.00000000
Si      -2.72787453      -2.71713357       0.01076966       0.00000000
Si      -2.72069064       2.72519971       0.00560848       0.00000000
