10
Lattice="16.28999089631971 0.0 0.0 0.0 16.28999089631971 0.0 0.0 0.0 34.40785480372833" Properties=species:S:1:pos:R:3:initial_magmoms:R:1 pbc="T T T"
Si       0.73477674      -0.95645595       1.93654397       0.00000000
Si       1.05202449      -1.07463338      -1.78539018       0.00000000
Si      -2.23818084      -0.73059021      -0.02460163       0.00000000
Si       0.61989966       2.28498201       0.01028795       0.00000000
Si       0.03020166       2.64082077      -2.25770706       0.00000000
Si       0.36432585      -3.37426892      -1.01386242       0.00000000
Si      -1.89288171      -2.68078733      -1.37538595       0.00000000
Si      -0.81629190       3.04007238       1.73071606       0.00000000
Si      -3.30385635       1.32121674      -0.56181177       0.00000000
Si       3.26912607      -1.04324581      -1.10793354       0.00000000
