10
Lattice="16.28999089631971 0.0 0.0 0.0 16.28999089631971 0.0 0.0 0.0 34.40785480372833" Properties=species:S:1:pos:R:3:initial_magmoms:R:1 pbc="T T T"
Si       1.34513046       1.81617210       0.72975660       0.00000000
Si      -1.64377503       0.20984778       1.73697830       0.00000000
Si      -0.64492110       0.24949764      -2.30302223       0.00000000
Si       1.54870659      -1.87930725       0.06967594       0.00000000
Si       0.49590018      -1.61691445      -3.06612006       0.00000000
Si       0.77470353       1.06865658       3.33997233       0.00000000
Si       3.29668875      -0.87902469       1.51914205       0.00000000
Si       0.52900146       2.10274578      -3.04753981       0.00000000
Si       0.17226675       3.76009038       0.00309671       0.00000000
Si      -3.53097153       1.14577344       0.66496657       0.00000000
