10
Lattice="16.28999089631971 0.0 0.0 0.0 16.28999089631971 0.0 0.0 0.0 34.40785480372833" Properties=species:S:1:pos:R:3:initial_magmoms:R:1 pbc="T T T"
Si       1.23450507       1.15822845       1.61594313       0.00000000
Si      -1.04264145       1.74527118      -1.30426487       0.00000000
Si      -1.41675759      -1.45751291       1.42966923       0.00000000
Si       1.74208518      -1.05459605      -1.49825647       0.00000000
Si       2.88836361       2.21067648       0.30826810       0.00000000
Si      -2.69886204       0.75989559      -2.71897902       0.00000000
Si      -0.08035857       2.60223921       2.92835235       0.00000000
Si       2.85526233      -2.71083293      -0.13009617       0.00000000
Si      -2.95184574       2.63247345       0.00003441       0.00000000
Si       2.66334984      -0.14405426       2.93962781       0.00000000
