10
Lattice="16.28999089631971 0.0 0.0 0.0 16.28999089631971 0.0 0.0 0.0 34.40785480372833" Properties=species:S:1:pos:R:3:initial_magmoms:R:1 pbc="T T T"
Si      -1.35650088       1.35780408       1.35377780       0.00000000
Si      -1.35627282      -1.35790182      -1.35749385       0.00000000
Si       1.35827649       1.35635427      -1.35732181       0.00000000
Si       1.35839052      -1.35677781       1.35986800       0.00000000
Si      -2.71217097       2.71189404       0.00048171       0.00000000
Si      -2.70759348       0.00420282       2.71729304       0.00000000
Si       0.00138465       2.71362078      -2.71457481       0.00000000
Si      -2.71235016      -2.71604799       0.00027526       0.00000000
Si      -2.71355562      -0.00063531      -2.71495330       0.00000000
Si       2.71604799       2.71340901       0.00034408       0.00000000
