10
Lattice="16.28999089631971 0.0 0.0 0.0 16.28999089631971 0.0 0.0 0.0 34.40785480372833" Properties=species:S:1:pos:R:3:initial_magmoms:R:1 pbc="T T T"
Si       2.37131901      -0.07693767      -0.02005979       0.00000000
Si      -0.64189116       2.20991769       0.58465860       0.00000000
Si      -0.96273900      -1.39654170       1.67583550       0.00000000
Si      -1.61132535      -0.28566144      -2.47420141       0.00000000
Si       3.00902364       2.01274353      -0.92361056       0.00000000
Si       2.96101701      -0.43277643       2.24793523       0.00000000
Si      -3.05426097      -2.02672035       0.81481286       0.00000000
Si      -1.46059398       3.34467909      -1.26373240       0.00000000
Si      -2.61772155       2.18812167       1.82609469       0.00000000
Si      -0.75259800      -0.35471475       3.84862393       0.00000000
