10
Lattice="16.28999089631971 0.0 0.0 0.0 16.28999089631971 0.0 0.0 0.0 34.40785480372833" Properties=species:S:1:pos:R:3:initial_magmoms:R:1 pbc="T T T"
Si      -1.36849032       1.91787057       0.17510167       0.00000000
Si       2.27742345       0.67702869       0.11973940       0.00000000
Si      -0.44655777      -1.67065353       1.65512196       0.00000000
Si      -0.21014100      -1.04182695      -2.17278843       0.00000000
Si       0.85553451      -3.09363390      -1.63557829       0.00000000
Si       2.73531906       0.14700096       2.35377385       0.00000000
Si      -0.29212857      -3.69887256       0.40601291       0.00000000
Si      -1.86512355       2.54283642      -2.02252924       0.00000000
Si       2.31225147       3.01024539       0.17100713       0.00000000
Si       1.56139650      -1.70624718       3.09829143       0.00000000
