10
Lattice="16.28999089631971 0.0 0.0 0.0 16.28999089631971 0.0 0.0 0.0 34.40785480372833" Properties=species:S:1:pos:R:3:initial_magmoms:R:1 pbc="T T T"
Si       0.52986972       1.08388773       2.07073468       0.00000000
Si      -0.60065140       1.63434312      -1.65742729       0.00000000
Si       0.36639957      -2.40169076      -0.58951011       0.00000000
Si      -2.13840689      -1.41801844       1.89140084       0.00000000
Si      -0.30119233      -0.75709567       3.35551578       0.00000000
Si       1.65184347       1.92073761      -2.52860025       0.00000000
Si      -3.20826893      -1.77208484      -0.43556928       0.00000000
Si       2.13588453      -2.29632704      -2.17478409       0.00000000
Si      -1.24754521       2.85219981       2.23158430       0.00000000
Si       2.30852595      -0.25234839      -3.27900158       0.00000000
