10
Lattice="16.28999089631971 0.0 0.0 0.0 16.28999089631971 0.0 0.0 0.0 34.40785480372833" Properties=species:S:1:pos:R:3:initial_magmoms:R:1 pbc="T T T"
Si      -1.33174008      -1.38381921      -1.33988046       0.00000000
Si       1.35821133      -1.35399222       1.36544207       0.00000000
Si      -1.35700587       1.36155078       1.36551089       0.00000000
Si       1.38329793       1.37492487      -1.35942414       0.00000000
Si      -2.77799234      -0.12628008      -2.60409113       0.00000000
Si       2.71244790      -2.70689301       0.00037849       0.00000000
Si      -2.70882663      -2.71391400       0.00474829       0.00000000
Si       2.71524978       2.71464705       0.00822348       0.00000000
Si      -2.71215142       2.71800279       0.00471388       0.00000000
Si       0.00057015      -2.71140534       2.72118113       0.00000000
