10
Lattice="16.28999089631971 0.0 0.0 0.0 16.28999089631971 0.0 0.0 0.0 34.40785480372833" Properties=species:S:1:pos:R:3:initial_magmoms:R:1 pbc="T T T"
Si       1.62984708       1.55157363      -0.63520376       0.00000000
Si       1.45212318      -1.56867813       0.96321403       0.00000000
Si      -1.12027959       1.71563022       1.17743745       0.00000000
Si      -1.00484865      -1.52151858      -1.57818596       0.00000000
Si      -1.04391207       0.30183741       3.10634287       0.00000000
Si       2.60811045      -2.11986657      -1.03891135       0.00000000
Si       0.41479227       3.58494030      -0.15270214       0.00000000
Si      -3.28805505       1.54005660       0.31758468       0.00000000
Si       0.09247833      -3.32939907       1.62491185       0.00000000
Si       2.05622154       1.12127328      -2.92645850       0.00000000
