10
Lattice="16.28999089631971 0.0 0.0 0.0 16.28999089631971 0.0 0.0 0.0 34.40785480372833" Properties=species:S:1:pos:R:3:initial_magmoms:R:1 pbc="T T T"
Si      -2.16777546      -0.17557362      -0.85985277       0.00000000
Si       1.12027959      -1.71563022      -1.17743745       0.00000000
Si       0.07636752      -1.41379281       1.92890542       0.00000000
Si       1.53507186       1.86931008      -1.33013959       0.00000000
Si       2.75012667      -0.16405659      -1.81264121       0.00000000
Si      -3.43456731       0.33182730       1.02975885       0.00000000
Si      -0.27953640       2.37387654      -2.81136416       0.00000000
Si       1.40473557       3.45996342       0.55076684       0.00000000
Si      -2.48619609       1.59182622      -2.38484416       0.00000000
Si      -2.37464217       2.24722179       2.01248214       0.00000000
