10
Lattice="16.28999089631971 0.0 0.0 0.0 16.28999089631971 0.0 0.0 0.0 34.40785480372833" Properties=species:S:1:pos:R:3:initial_magmoms:R:1 pbc="T T T"
Si      -2.29304556      -0.55654785      -0.37177708       0.00000000
Si       1.63815498      -1.76093271       0.32735651       0.00000000
Si       0.16534350       0.54035559       2.47547450       0.00000000
Si       0.87265530       1.20013710      -2.10610597       0.00000000
Si      -2.14496946      -3.00770415      -0.31521053       0.00000000
Si       2.42255106      -0.15312600       2.83699803       0.00000000
Si      -0.80031141      -1.31300658       3.55220010       0.00000000
Si       3.64467573      -1.17662670      -0.77225032       0.00000000
Si       2.69319312      -0.27100044      -2.86012012       0.00000000
Si       0.67694724      -3.87962640       0.59167780       0.00000000
