10
Lattice="16.28999089631971 0.0 0.0 0.0 16.28999089631971 0.0 0.0 0.0 34.40785480372833" Properties=species:S:1:pos:R:3:initial_magmoms:R:1 pbc="T T T"
Si       0.96565491       1.85336217      -1.07672560       0.00000000
Si      -2.24039628      -0.01102833       0.78212538       0.00000000
Si      -0.03258000      -2.02419540      -1.26259694       0.00000000
Si       1.51821171      -0.13453911       1.86294552       0.00000000
Si       3.22286247       1.15988058      -0.71520207       0.00000000
Si       0.56213532      -3.41246178       0.55128296       0.00000000
Si       2.45980629      -2.18888730       1.30829059       0.00000000
Si      -2.59090821       2.20407123       1.58431056       0.00000000
Si      -3.60111627      -0.57925611      -1.12534393       0.00000000
Si       3.56488731      -1.32248736      -0.63048988       0.00000000
