10
Lattice="16.28999089631971 0.0 0.0 0.0 16.28999089631971 0.0 0.0 0.0 34.40785480372833" Properties=species:S:1:pos:R:3:initial_magmoms:R:1 pbc="T T T"
Si      -1.35614250      -1.35738345       1.35721859       0.00000000
Si      -1.35747828       1.35708345      -1.35690892       0.00000000
Si       1.35755973      -1.35818166      -1.35735622       0.00000000
Si       1.35935163       1.35992605       1.35770030       0.00000000
Si      -2.71376739       0.00108527      -2.71409310       0.00000000
Si      -2.71437012       2.71360876       0.00017204       0.00000000
Si       0.00042354       2.71342957      -2.71464363       0.00000000
Si       2.71316904      -0.00018352      -2.71512534       0.00000000
Si       2.71477916       2.71442326      -0.00020645       0.00000000
Si      -0.00115659       2.71132816       2.71839409       0.00000000
