10
Lattice="16.28999089631971 0.0 0.0 0.0 16.28999089631971 0.0 0.0 0.0 34.40785480372833" Properties=species:S:1:pos:R:3:initial_magmoms:R:1 pbc="T T T"
Si      -1.83614364      -0.68105232      -1.34338663       0.00000000
Si       0.72304794       1.90711917      -1.27030430       0.00000000
Si      -1.80300978      -0.95667912       1.41268408       0.00000000
Si       1.93155417      -1.65100779      -0.21453309       0.00000000
Si       1.63149237       0.37893798       2.62397888       0.00000000
Si       2.07342378       0.53856369      -2.72940461       0.00000000
Si      -0.52189902      -0.37812348       3.47805113       0.00000000
Si      -0.65239821      -2.19865804      -2.71832527       0.00000000
Si       0.75958641      -3.54091562      -1.25186168       0.00000000
Si       3.09529548      -1.56105441       1.84918237       0.00000000
