10
Lattice="16.28999089631971 0.0 0.0 0.0 16.28999089631971 0.0 0.0 0.0 34.40785480372833" Properties=species:S:1:pos:R:3:initial_magmoms:R:1 pbc="T T T"
Si      -0.14198364       2.41958628      -0.19777646       0.00000000
Si      -2.15339139      -0.75706146       0.85407225       0.00000000
Si       1.46380311      -1.93999239      -0.77479651       0.00000000
Si       1.93489559       0.57275640       1.59676621       0.00000000
Si      -1.63149237      -0.37893798      -2.62397888       0.00000000
Si       2.01102235       2.74594014       0.63307047       0.00000000
Si       0.30006180      -2.02994577      -2.83851198       0.00000000
Si       1.34423451      -3.24576295       1.24126406       0.00000000
Si       3.60737882      -0.79105869      -0.95278844       0.00000000
Si      -3.43450215      -1.33561710      -1.21129480       0.00000000
