10
Lattice="16.28999089631971 0.0 0.0 0.0 16.28999089631971 0.0 0.0 0.0 34.40785480372833" Properties=species:S:1:pos:R:3:initial_magmoms:R:1 pbc="T T T"
Si      -0.93784788       0.57460043       2.09829538       0.00000000
Si       2.04379227       0.73084759      -0.95117127       0.00000000
Si      -0.23337054      -2.09213352      -1.12025156       0.00000000
Si      -1.99065429       0.83699323      -1.03750063       0.00000000
Si      -0.86437998       1.09015286      -3.04712692       0.00000000
Si      -2.12231007      -1.57100013       2.13500858       0.00000000
Si       1.24996428       2.11064480      -2.66337590       0.00000000
Si      -1.99197378      -3.16165347       0.25410215       0.00000000
Si      -0.86504787      -1.26139239      -3.42564794       0.00000000
Si       2.63770938      -0.97858170      -2.48813659       0.00000000
