10
Lattice="16.28999089631971 0.0 0.0 0.0 16.28999089631971 0.0 0.0 0.0 34.40785480372833" Properties=species:S:1:pos:R:3:initial_magmoms:R:1 pbc="T T T"
Si       1.34480466       1.35975888       1.39789214       0.00000000
Si      -1.37021706      -1.35542574       1.39823622       0.00000000
Si      -1.20422196       1.52511867      -1.42502963       0.00000000
Si       1.35322659      -1.43197245      -1.68886577       0.00000000
Si       2.68139916      -2.69744481       0.01904820       0.00000000
Si      -2.72811888      -2.69933445       0.00955507       0.00000000
Si       2.70879894       2.72279205       0.01092450       0.00000000
Si      -2.72525184       2.72635956       0.01456485       0.00000000
Si       2.70374904       0.00607617       2.76120092       0.00000000
Si      -0.01413972      -2.71067229       2.76113211       0.00000000
