10
Lattice="16.28999089631971 0.0 0.0 0.0 16.28999089631971 0.0 0.0 0.0 34.40785480372833" Properties=species:S:1:pos:R:3:initial_magmoms:R:1 pbc="T T T"
Si       1.35624792      -1.35716877       1.35804438       0.00000000
Si      -1.35835794      -1.35826020      -1.35656484       0.00000000
Si      -1.35757602       1.35760860       1.35831964       0.00000000
Si       1.35953082       1.35848826      -1.35649603       0.00000000
Si       2.71415088      -0.00058644       2.71526297       0.00000000
Si       0.00066789      -2.71699281       2.71285442       0.00000000
Si      -2.71494027       2.71502172       0.00079138       0.00000000
Si      -2.71547784      -2.71466334       0.00041289       0.00000000
Si       0.00099369      -2.71303434      -2.71712100       0.00000000
Si       2.71517226      -2.71511946       0.00027526       0.00000000
