10
Lattice="16.28999089631971 0.0 0.0 0.0 16.28999089631971 0.0 0.0 0.0 34.40785480372833" Properties=species:S:1:pos:R:3:initial_magmoms:R:1 pbc="T T T"
Si      -1.35777150      -1.35705474      -1.35766589       0.00000000
Si       1.35769005       1.35811359      -1.35745945       0.00000000
Si      -1.35584928       1.35790182       1.36176043       0.00000000
Si       1.35925389      -1.35840681       1.35948951       0.00000000
Si      -2.71604799      -2.71340901      -0.00034408       0.00000000
Si      -0.00021177      -2.71415835      -2.71536620       0.00000000
Si      -2.71466334       0.00021177      -2.71491889       0.00000000
Si      -2.71417464       2.71567332      -0.00017204       0.00000000
Si       0.00032580       2.71552671      -2.71498771       0.00000000
Si       2.71526607       0.00050499      -2.71577909       0.00000000
