10
Lattice="16.28999089631971 0.0 0.0 0.0 16.28999089631971 0.0 0.0 0.0 34.40785480372833" Properties=species:S:1:pos:R:3:initial_magmoms:R:1 pbc="T T T"
Si       1.36112724       1.34589609       1.36485714       0.00000000
Si      -1.35925389       1.35840681      -1.35948951       0.00000000
Si       1.35668007      -1.35808101      -1.36241418       0.00000000
Si      -1.37015190      -1.35920502       1.37923963       0.00000000
Si       0.03192840       2.76079662       2.63020671       0.00000000
Si       2.70505188      -2.70684414      -0.00505796       0.00000000
Si      -2.71691136      -2.71178001       0.00003441       0.00000000
Si       2.71176372       2.71702539      -0.00172039       0.00000000
Si       2.71226010       0.00174303      -2.71722422       0.00000000
Si      -0.00128691      -2.71274112      -2.71743067       0.00000000
