10
Lattice="16.28999089631971 0.0 0.0 0.0 16.28999089631971 0.0 0.0 0.0 34.40785480372833" Properties=species:S:1:pos:R:3:initial_magmoms:R:1 pbc="T T T"
Si      -1.39955535       1.34247519      -1.26658825       0.00000000
Si       1.32919884      -1.41490053      -1.26534957       0.00000000
Si      -1.80089208      -0.87876405       1.18638350       0.00000000
Si       1.74539205       1.00727586       1.27752995       0.00000000
Si      -0.54579645      -2.06208594       2.78118846       0.00000000
Si       2.63142144      -2.57559561       0.41113969       0.00000000
Si      -0.03673395       2.67076179      -2.63099809       0.00000000
Si       2.67983532      -0.04377123      -2.63192710       0.00000000
Si       0.85006107       1.66169403       3.27934566       0.00000000
Si      -2.74703157      -0.04448799      -2.62793579       0.00000000
