10
Lattice="16.28999089631971 0.0 0.0 0.0 16.28999089631971 0.0 0.0 0.0 34.40785480372833" Properties=species:S:1:pos:R:3:initial_magmoms:R:1 pbc="T T T"
Si      -1.30222260       1.16069508      -1.67648925       0.00000000
Si      -1.73206683      -1.17775071       1.25561214       0.00000000
Si       0.89181301       1.85236848       1.35260794       0.00000000
Si       1.39360365      -1.52788797      -1.64634796       0.00000000
Si      -2.63142144       2.57559561      -0.41113969       0.00000000
Si       2.73096053       2.60521083      -0.14991511       0.00000000
Si      -0.88602939       3.58287147       0.86639027       0.00000000
Si      -2.64057642      -2.87116137      -0.21604704       0.00000000
Si       0.04841388       2.53182438      -3.04306679       0.00000000
Si      -3.17721789       0.51350967       2.37004877       0.00000000
