10
Lattice="16.28999089631971 0.0 0.0 0.0 16.28999089631971 0.0 0.0 0.0 34.40785480372833" Properties=species:S:1:pos:R:3:initial_magmoms:R:1 pbc="T T T"
Si      -0.36538470       1.87087392      -1.37486983       0.00000000
Si       1.48179283      -0.93858093      -1.59607805       0.00000000
Si      -1.96190244      -1.18967499       0.70518938       0.00000000
Si       0.78762543       1.26166050       1.88510419       0.00000000
Si       3.13935083      -1.60777413      -0.08306061       0.00000000
Si      -1.44477639       3.24413721       0.16963082       0.00000000
Si      -1.04537817       2.67561621       2.35666411       0.00000000
Si      -3.71825766      -0.53427942      -0.85152607       0.00000000
Si       1.74788835       2.67071292      -2.18276671       0.00000000
Si       2.02431499      -3.04184799       1.41113573       0.00000000
