10
Lattice="16.28999089631971 0.0 0.0 0.0 16.28999089631971 0.0 0.0 0.0 34.40785480372833" Properties=species:S:1:pos:R:3:initial_magmoms:R:1 pbc="T T T"
Si      -1.84484250       0.28224054       1.41003468       0.00000000
Si       0.64322694       1.89765468      -1.25702286       0.00000000
Si       1.50961059       0.50153652       1.88957722       0.00000000
Si      -0.75263058      -1.82612529      -1.75518006       0.00000000
Si      -1.84326237      -1.90361682       2.41292098       0.00000000
Si       1.53855792       1.24323651      -3.25883857       0.00000000
Si      -0.90922635       3.65229945      -0.83841667       0.00000000
Si       0.43021890       1.87479981       3.43407787       0.00000000
Si      -2.00772621      -0.64280340      -3.34998502       0.00000000
Si       3.62288364       1.30137552       1.08168034       0.00000000
