10
Lattice="16.28999089631971 0.0 0.0 0.0 16.28999089631971 0.0 0.0 0.0 34.40785480372833" Properties=species:S:1:pos:R:3:initial_magmoms:R:1 pbc="T T T"
Si      -0.39939822       0.56852100      -2.18703329       0.00000000
Si       0.23962590       1.68505389       1.61572495       0.00000000
Si      -2.07668178      -0.92813904       0.62759962       0.00000000
Si       1.83300360      -1.41395571      -0.47155991       0.00000000
Si       2.06616563      -2.54917323       1.53672447       0.00000000
Si       1.04537817      -2.67561621      -2.35666411       0.00000000
Si       0.67531824       2.45710215      -2.78827648       0.00000000
Si      -3.72402432       0.02075346      -0.82678681       0.00000000
Si       1.29671658       0.70025823       3.51865242       0.00000000
Si      -1.95950781       2.60504793       2.02700227       0.00000000
