10
Lattice="16.28999089631971 0.0 0.0 0.0 16.28999089631971 0.0 0.0 0.0 34.40785480372833" Properties=species:S:1:pos:R:3:initial_magmoms:R:1 pbc="T T T"
Si       0.07050312      -2.34395181      -0.26160307       0.00000000
Si       2.07668178       0.92813904      -0.62759962       0.00000000
Si      -0.42637446       0.43030035       2.29125474       0.00000000
Si      -1.64734254       0.94889250      -1.45438643       0.00000000
Si       1.67728356       1.49666004      -2.81463291       0.00000000
Si       2.31630768       2.61319293       0.98812533       0.00000000
Si       1.70904906       0.03407868       3.30191722       0.00000000
Si      -2.05622154      -1.12127328       2.92645850       0.00000000
Si       0.55188891      -3.24113985       1.88754715       0.00000000
Si       0.11717397       3.53318697       1.39940264       0.00000000
