10
Lattice="16.28999089631971 0.0 0.0 0.0 16.28999089631971 0.0 0.0 0.0 34.40785480372833" Properties=species:S:1:pos:R:3:initial_magmoms:R:1 pbc="T T T"
Si       0.83680101       2.16583110       0.25444623       0.00000000
Si       0.30504654      -0.37603836       2.29300954       0.00000000
Si       1.68659234      -1.28350539      -1.07676001       0.00000000
Si      -2.10911517      -0.48711987      -1.37824180       0.00000000
Si      -0.55666188      -2.24176464      -1.79684800       0.00000000
Si      -0.42643962       2.86740394       2.13693542       0.00000000
Si       2.99487482       1.74245400       1.09792085       0.00000000
Si       2.59854237      -0.01510083       2.65460189       0.00000000
Si      -0.76966992      -2.26461951       2.89425273       0.00000000
Si       2.42299482      -2.83804380       0.54185520       0.00000000
