10
Lattice="16.28999089631971 0.0 0.0 0.0 16.28999089631971 0.0 0.0 0.0 34.40785480372833" Properties=species:S:1:pos:R:3:initial_magmoms:R:1 pbc="T T T"
Si      -1.40122325      -0.95721669       1.57047859       0.00000000
Si      -1.30696931       1.26483705      -1.50083706       0.00000000
Si       1.64740856       1.59627339       0.62388357       0.00000000
Si       1.24319013      -1.57933179      -1.37084411       0.00000000
Si       0.40550783       1.68813270      -3.00256872       0.00000000
Si       1.24773667       3.11468058      -1.26861832       0.00000000
Si       3.56048987       0.26393058       0.38000056       0.00000000
Si      -2.93365613       0.86626962       1.90912089       0.00000000
Si       0.13029887      -1.77806979       3.20340748       0.00000000
Si      -2.37455075      -2.77162947       0.38072313       0.00000000
