10
Lattice="16.28999089631971 0.0 0.0 0.0 16.28999089631971 0.0 0.0 0.0 34.40785480372833" Properties=species:S:1:pos:R:3:initial_magmoms:R:1 pbc="T T T"
Si       1.76369712       1.03278600      -1.07099428       0.00000000
Si       1.38260886      -1.24774884       1.48572856       0.00000000
Si      -0.96139670      -1.58877999      -1.58781814       0.00000000
Si      -1.31466394       1.47315357       1.44798312       0.00000000
Si       3.38999298      -0.65650329      -1.17567577       0.00000000
Si       2.83626330      -2.50455492       0.17272753       0.00000000
Si      -2.67023629      -2.68161093      -0.25180714       0.00000000
Si       0.03744908      -2.60219718       2.83818510       0.00000000
Si      -2.52784540       2.95735176      -0.05475325       0.00000000
Si      -2.67865822       0.11012040       2.83495076       0.00000000
