10
Lattice="16.28999089631971 0.0 0.0 0.0 16.28999089631971 0.0 0.0 0.0 34.40785480372833" Properties=species:S:1:pos:R:3:initial_magmoms:R:1 pbc="T T T"
Si       1.35615879       1.35816246       1.35694333       0.00000000
Si      -1.35715085       1.35692442      -1.35739063       0.00000000
Si       1.35760860      -1.35767376      -1.35790675       0.00000000
Si      -1.35840518      -1.35858600       1.35708096       0.00000000
Si       0.00197109       2.71090035       2.71423074       0.00000000
Si      -2.71302524       0.00048870      -2.71467804       0.00000000
Si      -0.00071676      -2.71459818      -2.71395547       0.00000000
Si       0.00097740       2.71433754      -2.71443718       0.00000000
Si       2.71476108       2.71433754      -0.00013763       0.00000000
Si      -2.71512781       2.71450044       0.00003441       0.00000000
