10
Lattice="16.28999089631971 0.0 0.0 0.0 16.28999089631971 0.0 0.0 0.0 34.40785480372833" Properties=species:S:1:pos:R:3:initial_magmoms:R:1 pbc="T T T"
Si      -1.34206794      -1.35400851      -1.38360943       0.00000000
Si       1.37072205       1.35951453      -1.38381588       0.00000000
Si       1.25747397      -1.49441202       1.35322728       0.00000000
Si      -1.37639097       1.43192358       1.50544771       0.00000000
Si      -2.68274471       2.71498914      -0.03258426       0.00000000
Si      -2.71374784      -2.70117522       0.00901486       0.00000000
Si       2.62045827      -0.17659989       2.79629351       0.00000000
Si       2.73639420      -2.70928764      -0.02852413       0.00000000
Si      -2.70053828      -0.00016290      -2.74598920       0.00000000
Si       2.71107954       2.74240521      -0.00739769       0.00000000
