10
Lattice="16.28999089631971 0.0 0.0 0.0 16.28999089631971 0.0 0.0 0.0 34.40785480372833" Properties=species:S:1:pos:R:3:initial_magmoms:R:1 pbc="T T T"
Si       0.75298896      -2.15940240      -0.60024536       0.00000000
Si       1.67979222       0.11409516       1.66527229       0.00000000
Si      -2.28358759       0.58425714       0.39379812       0.00000000
Si       1.14437250       2.35037007       0.59542826       0.00000000
Si       2.86532955      -0.02621061      -2.30993822       0.00000000
Si      -2.97066721       0.82947051      -2.09826097       0.00000000
Si       0.15731253       3.10663332      -2.12238089       0.00000000
Si      -2.93027941      -0.99118134       2.34272892       0.00000000
Si       3.70553517      -0.86074731       0.95767436       0.00000000
Si       0.21115098      -3.85690185       0.97718362       0.00000000
