10
Lattice="16.28999089631971 0.0 0.0 0.0 16.28999089631971 0.0 0.0 0.0 34.40785480372833" Properties=species:S:1:pos:R:3:initial_magmoms:R:1 pbc="T T T"
Si      -0.65331045      -1.68511905      -1.48229121       0.00000000
Si       1.65755800      -0.66919320       1.51301744       0.00000000
Si      -1.48179283       0.93858093       1.59607805       0.00000000
Si       0.64669182       1.57543848      -1.94893080       0.00000000
Si      -1.84717753       2.80945485       0.22120822       0.00000000
Si       0.26609552       3.60929385      -0.58668866       0.00000000
Si       0.54252216      -2.10326706       3.00721378       0.00000000
Si       2.93027941       0.99118134      -2.34272892       0.00000000
Si      -0.72943720      -3.85830279      -0.51859548       0.00000000
Si       2.64688228       1.03957893       2.81222436       0.00000000
