10
Lattice="16.28999089631971 0.0 0.0 0.0 16.28999089631971 0.0 0.0 0.0 34.40785480372833" Properties=species:S:1:pos:R:3:initial_magmoms:R:1 pbc="T T T"
Si      -0.73640248       1.55453841      -1.61861521       0.00000000
Si      -2.11327305      -0.79983900       0.80789688       0.00000000
Si       1.45611749       0.87581556       1.74296527       0.00000000
Si       0.38059630      -2.03385537      -1.36224214       0.00000000
Si       0.17554756       2.82294297       2.11274669       0.00000000
Si       1.44468191       2.13006411      -2.57749384       0.00000000
Si      -0.26609552      -3.60929385       0.58668866       0.00000000
Si      -2.11794828       2.46200544       1.75115434       0.00000000
Si      -2.42299482       2.83804380      -0.54185520       0.00000000
Si      -2.97965670       0.59627916      -2.33870320       0.00000000
