10
Lattice="16.28999089631971 0.0 0.0 0.0 16.28999089631971 0.0 0.0 0.0 34.40785480372833" Properties=species:S:1:pos:R:3:initial_magmoms:R:1 pbc="T T T"
Si      -1.70883959      -1.09283094       1.33601099       0.00000000
Si       0.96139670       1.58877999       1.58781814       0.00000000
Si      -0.19801375       0.74823228      -2.37101219       0.00000000
Si       1.82505504      -1.46222298      -1.09248441       0.00000000
Si      -1.68575666       2.58509268      -2.08842032       0.00000000
Si       2.72509383       2.62156599       0.51682386       0.00000000
Si       2.67651705      -2.69529453       0.68086339       0.00000000
Si      -0.38066702      -2.35830330       3.04392496       0.00000000
Si       2.34400557       0.34103115       3.07354670       0.00000000
Si       3.61552152       0.06862977      -1.81501536       0.00000000
