10
Lattice="10.86 0.0 0.0 0.0 10.86 0.0 0.0 0.0 10.86" Properties=species:S:1:pos:R:3:initial_magmoms:R:1 pbc="T T T"
Si       1.19824896       1.40686956      -1.32234618       0.00000000
Si      -1.51680534       1.65125214       0.92018952       0.00000000
Si      -1.51452474      -0.97165506      -1.75129446       0.00000000
Si      -0.19047354      -2.47550442      -2.88657714       0.00000000
Si      -2.90547354      -2.47550442      -0.17157714       0.00000000
Si       2.52452646       0.23949558      -2.88657714       0.00000000
Si      -0.30378678      -2.81340246       2.61927996       0.00000000
Si      -2.90547354       0.23949558       2.54342286       0.00000000
Si       2.52452646       2.95449558      -0.17157714       0.00000000
Si      -0.19047354       2.95449558       2.54342286       0.00000000
