10
Lattice="10.86 0.0 0.0 0.0 10.86 0.0 0.0 0.0 10.86" Properties=species:S:1:pos:R:3:initial_magmoms:R:1 pbc="T T T"
Si      -1.19824896      -1.40686956       1.32234618       0.00000000
Si       1.32627750       1.54762602       1.15076904       0.00000000
Si       1.32627750      -1.16737398      -1.56423096       0.00000000
Si      -1.38872250       1.54762602      -1.56423096       0.00000000
Si      -2.71505430       0.24438258       2.24253570       0.00000000
Si      -2.71277370      -2.37852462      -0.42894828       0.00000000
Si       2.95838346       0.50219898       2.17659378       0.00000000
Si      -0.03122250       2.90512602       2.50826904       0.00000000
Si      -0.03122250      -2.52487398      -2.92173096       0.00000000
Si       2.60732310      -2.87706378      -0.07827888       0.00000000
