10
Lattice="10.86 0.0 0.0 0.0 10.86 0.0 0.0 0.0 10.86" Properties=species:S:1:pos:R:3:initial_magmoms:R:1 pbc="T T T"
Si       1.16952426       1.50047190       1.20057300       0.00000000
Si       1.16952426      -1.21452810      -1.51442700       0.00000000
Si      -1.54547574      -1.21452810       1.20057300       0.00000000
Si       2.52702426       0.14297190       2.55807300       0.00000000
Si       2.52702426      -2.57202810      -0.15692700       0.00000000
Si      -0.18797574      -2.57202810       2.55807300       0.00000000
Si      -0.04768626      -2.37390912      -2.98268814       0.00000000
Si       2.52702426       2.85797190      -0.15692700       0.00000000
Si       2.52702426       0.14297190      -2.87192700       0.00000000
Si      -0.18797574       2.85797190       2.55807300       0.00000000
