10
Lattice="10.86 0.0 0.0 0.0 10.86 0.0 0.0 0.0 10.86" Properties=species:S:1:pos:R:3:initial_magmoms:R:1 pbc="T T T"
Si      -1.19442624       1.28265288      -1.40069022       0.00000000
Si      -1.19442624      -1.43234712       1.31430978       0.00000000
Si       1.34870340       1.12789788       1.75349904       0.00000000
Si       1.52057376      -1.43234712      -1.40069022       0.00000000
Si      -2.55192624       2.64015288      -0.04319022       0.00000000
Si      -2.55192624      -0.07484712       2.67180978       0.00000000
Si       1.62329850      -0.69835230       3.29722632       0.00000000
Si       2.92873566       2.34587946      -0.06310746       0.00000000
Si      -2.55192624      -0.07484712      -2.75819022       0.00000000
Si      -2.55192624      -2.78984712      -0.04319022       0.00000000
