10
Lattice="10.86 0.0 0.0 0.0 10.86 0.0 0.0 0.0 10.86" Properties=species:S:1:pos:R:3:initial_magmoms:R:1 pbc="T T T"
Si      -1.21343124       1.48611498       1.03919340       0.00000000
Si       0.27459510      -1.82625018       1.54372728       0.00000000
Si      -1.34870340      -1.12789788      -1.75349904       0.00000000
Si       1.58003226       1.21798158      -1.81660650       0.00000000
Si      -2.54312964       0.15475500       2.27581074       0.00000000
Si      -2.54312964      -2.56024500      -0.43918926       0.00000000
Si       0.17187036       2.86975500       2.27581074       0.00000000
Si      -2.54312964       2.86975500      -0.43918926       0.00000000
Si      -1.21107462      -1.36392912       3.48450702       0.00000000
Si      -2.54312964       0.15475500      -3.15418926       0.00000000
