10
Lattice="10.86 0.0 0.0 0.0 10.86 0.0 0.0 0.0 10.86" Properties=species:S:1:pos:R:3:initial_magmoms:R:1 pbc="T T T"
Si       1.38125082      -1.31816508      -1.19342712       0.00000000
Si      -1.33374918       1.39683492      -1.19342712       0.00000000
Si       1.38125082       1.39683492       1.52157288       0.00000000
Si      -1.16373588      -1.56255852       1.63575492       0.00000000
Si       2.71806252      -2.46877122       0.21967608       0.00000000
Si       0.02375082      -2.67566508      -2.55092712       0.00000000
Si      -2.69124918       0.03933492      -2.55092712       0.00000000
Si       2.73875082       0.03933492      -2.55092712       0.00000000
Si       0.02375082       2.75433492      -2.55092712       0.00000000
Si      -2.69124918       2.75433492       0.16407288       0.00000000
