10
Lattice="10.86 0.0 0.0 0.0 10.86 0.0 0.0 0.0 10.86" Properties=species:S:1:pos:R:3:initial_magmoms:R:1 pbc="T T T"
Si      -1.36509114       1.44372840      -1.15985886       0.00000000
Si      -1.36509114      -1.27127160       1.55514114       0.00000000
Si       1.34990886       1.44372840       1.55514114       0.00000000
Si      -2.66463132       0.12798510      -2.56668498       0.00000000
Si      -0.00759114       2.80122840      -2.51735886       0.00000000
Si       2.83886916      -0.23484750      -2.49386868       0.00000000
Si      -2.67881448      -2.70917904       0.24802068       0.00000000
Si       2.70740886       2.80122840       0.19764114       0.00000000
Si      -2.72259114       2.80122840       0.19764114       0.00000000
Si      -0.00759114      -2.62877160       2.91264114       0.00000000
