10
Lattice="10.86 0.0 0.0 0.0 10.86 0.0 0.0 0.0 10.86" Properties=species:S:1:pos:R:3:initial_magmoms:R:1 pbc="T T T"
Si       1.30191852       1.41458016      -1.28325018       0.00000000
Si       1.35750000      -1.35750000       1.35750000       0.00000000
Si      -1.35750000       1.35750000       1.35750000       0.00000000
Si      -1.33291296      -1.46507916      -1.38243456       0.00000000
Si       0.15901212      -2.56217808      -2.60550948       0.00000000
Si       0.00000000       2.71500000      -2.71500000       0.00000000
Si       2.71500000      -2.71500000       0.00000000       0.00000000
Si      -2.71500000      -2.71500000       0.00000000       0.00000000
Si      -2.71500000       0.00000000      -2.71500000       0.00000000
Si       0.00000000       2.71500000       2.71500000       0.00000000
