10
Lattice="16.28999089631971 0.0 0.0 0.0 16.28999089631971 0.0 0.0 0.0 34.31420841018396" Properties=species:S:1:pos:R:3:initial_magmoms:R:1 pbc="T T T"
Si      -1.85924286      -0.86664983      -1.16198269       0.00000000
Si       1.01141352       1.87135285      -1.07859912       0.00000000
Si      -0.71182413       0.74496451       2.24044455       0.00000000
Si       1.58703696      -1.91440147      -0.14072265       0.00000000
Si       2.23264224       0.45588868      -2.55177753       0.00000000
Si      -0.52268094      -2.27374258      -2.56581205       0.00000000
Si       0.70584570       2.74373122       2.35834823       0.00000000
Si       3.53696625      -0.89193680      -1.07043233       0.00000000
Si      -3.10500758      -2.23733443       0.31147024       0.00000000
Si      -3.10253150       1.20409816       2.01990701       0.00000000
