10
Lattice="16.28999089631971 0.0 0.0 0.0 16.28999089631971 0.0 0.0 0.0 34.31420841018396" Properties=species:S:1:pos:R:3:initial_magmoms:R:1 pbc="T T T"
Si      -1.05251319       1.53758052       1.42503556       0.00000000
Si       1.28765934       1.43759250      -1.41659426       0.00000000
Si      -1.47853646      -1.33253829      -1.38341240       0.00000000
Si       0.17623825      -1.69300341       1.78588397       0.00000000
Si      -2.36955059      -0.33927183       2.05658892       0.00000000
Si       2.21918670       1.86105105       1.98641632       0.00000000
Si      -2.52454994       2.71464705      -0.06663823       0.00000000
Si       0.94001445      -0.34319772       3.57060127       0.00000000
Si       0.05753465      -2.45567189      -2.79276635       0.00000000
Si      -2.64846797       0.23455971      -2.78398191       0.00000000
