10
Lattice="16.28999089631971 0.0 0.0 0.0 16.28999089631971 0.0 0.0 0.0 34.31420841018396" Properties=species:S:1:pos:R:3:initial_magmoms:R:1 pbc="T T T"
Si      -2.39070737       0.45913365      -0.22053754       0.00000000
Si       1.41766983       1.99876671       0.11790369       0.00000000
Si       0.24099426      -1.82706101       1.61987174       0.00000000
Si       0.71182413      -0.74496451      -2.24044455       0.00000000
Si      -1.62693117       1.80893934       1.56417975       0.00000000
Si       2.50866000       1.59205428       2.20458618       0.00000000
Si      -0.06395454      -0.91249412       3.75627555       0.00000000
Si      -2.56694562       2.15213706      -2.00642152       0.00000000
Si       1.72323765       1.12638834      -3.31904366       0.00000000
Si       2.37201948      -2.78330030       1.41621680       0.00000000
