10
Lattice="16.28999089631971 0.0 0.0 0.0 16.28999089631971 0.0 0.0 0.0 34.31420841018396" Properties=species:S:1:pos:R:3:initial_magmoms:R:1 pbc="T T T"
Si      -1.35539316       1.35687555       1.35980421       0.00000000
Si       1.34218197       1.35110889      -1.37918146       0.00000000
Si       1.35742941      -1.35786924       1.35980421       0.00000000
Si      -1.36604682      -1.33947783      -1.38714922       0.00000000
Si      -2.71254564      -2.71436686      -0.00528439       0.00000000
Si       2.71324611      -2.71559513      -0.00205885       0.00000000
Si       2.71378368       2.71604799      -0.00504419       0.00000000
Si      -2.71412577      -0.00076563       2.71614268       0.00000000
Si       0.00068418       2.71423980       2.71669171       0.00000000
Si      -2.71801908       2.71396287      -0.00102943       0.00000000
