10
Lattice="16.28999089631971 0.0 0.0 0.0 16.28999089631971 0.0 0.0 0.0 34.31420841018396" Properties=species:S:1:pos:R:3:initial_magmoms:R:1 pbc="T T T"
Si      -1.35607734      -1.35736425      -1.35688750       0.00000000
Si       1.35713619       1.35734796      -1.35675024       0.00000000
Si      -1.35726651       1.35728280       1.35726496       0.00000000
Si       1.35752715      -1.35736425       1.35805419       0.00000000
Si       2.71472850      -2.71466334      -0.00006863       0.00000000
Si       0.00001629       2.71502172       2.71463286       0.00000000
Si      -2.71471221       2.71505430       0.00006863       0.00000000
Si      -2.71480995      -2.71500543      -0.00054903       0.00000000
Si       2.71515204      -0.00048870       2.71504463       0.00000000
Si       2.71528236       2.71523349       0.00051471       0.00000000
