10
Lattice="16.28999089631971 0.0 0.0 0.0 16.28999089631971 0.0 0.0 0.0 34.31420841018396" Properties=species:S:1:pos:R:3:initial_magmoms:R:1 pbc="T T T"
Si      -1.35063648       1.35316143       1.35771104       0.00000000
Si      -1.35576783      -1.35777150      -1.35699044       0.00000000
Si       1.35899325       1.35713619      -1.35705907       0.00000000
Si       1.36125756      -1.36000323       1.36179444       0.00000000
Si      -2.71337317      -0.00060273      -2.71401520       0.00000000
Si      -2.71221658      -0.01780497       2.71542209       0.00000000
Si      -2.71442062       2.71407690       0.00120100       0.00000000
Si       0.00154755       2.71490769      -2.71425540       0.00000000
Si       0.00144981      -2.71515204      -2.71487306       0.00000000
Si      -2.71495656      -2.71546155       0.00013726       0.00000000
