10
Lattice="16.28999089631971 0.0 0.0 0.0 16.28999089631971 0.0 0.0 0.0 34.31420841018396" Properties=species:S:1:pos:R:3:initial_magmoms:R:1 pbc="T T T"
Si       1.34113941       1.37174832      -1.38183394       0.00000000
Si      -1.36951659      -1.34649882      -1.38351534       0.00000000
Si      -1.47235536       1.27081548       1.35651004       0.00000000
Si       1.44720360      -1.33711578       1.60110186       0.00000000
Si       0.30444381       2.27748861       2.60822444       0.00000000
Si      -0.93882528      -2.00937150       2.77910929       0.00000000
Si       2.69044011      -2.70857088      -0.00291671       0.00000000
Si       2.71586880       2.71938744      -0.00219611       0.00000000
Si      -2.71888245      -2.71798650      -0.01523552       0.00000000
Si       2.70063765       0.01286910      -2.74458918       0.00000000
