10
Lattice="16.28999089631971 0.0 0.0 0.0 16.28999089631971 0.0 0.0 0.0 34.31420841018396" Properties=species:S:1:pos:R:3:initial_magmoms:R:1 pbc="T T T"
Si       1.48778199       0.87855228       1.66613216       0.00000000
Si       0.96104484      -0.98797221      -1.97015138       0.00000000
Si      -1.12335840       1.87626591      -1.14578637       0.00000000
Si      -1.23323445      -1.67550795       1.53645527       0.00000000
Si       2.16233460       0.84797595      -2.91362106       0.00000000
Si      -2.80974807       2.56101606       0.44145254       0.00000000
Si       0.18155205       2.23296804       3.15372599       0.00000000
Si       3.32200341       1.98910674       0.43682012       0.00000000
Si       2.39664996      -2.77907400      -1.61661189       0.00000000
Si      -2.53855215      -0.47496753       3.14633127       0.00000000
