10
Lattice="16.28999089631971 0.0 0.0 0.0 16.28999089631971 0.0 0.0 0.0 34.31420841018396" Properties=species:S:1:pos:R:3:initial_magmoms:R:1 pbc="T T T"
Si       1.35739683       1.35757602      -1.35692182       0.00000000
Si      -1.35728280      -1.35773892      -1.35736790       0.00000000
Si       1.35563751      -1.35663120       1.36316701       0.00000000
Si      -1.35672894       1.35793440       1.36093658       0.00000000
Si       0.03212388       2.69283474       2.72012314       0.00000000
Si      -2.71472850       0.00003258      -2.71456423       0.00000000
Si       2.71526607       0.00021177      -2.71411815       0.00000000
Si       0.00019548       2.71495656      -2.71452992       0.00000000
Si      -0.00001629      -2.71502172      -2.71463286       0.00000000
Si       2.71552671       2.71463076       0.00120100       0.00000000
