10
Lattice="16.28999089631971 0.0 0.0 0.0 16.28999089631971 0.0 0.0 0.0 34.31420841018396" Properties=species:S:1:pos:R:3:initial_magmoms:R:1 pbc="T T T"
Si       1.39305564      -1.45674954      -1.18013492       0.00000000
Si      -1.52920746       1.45588617      -1.10937898       0.00000000
Si      -1.79129727      -0.95557140       1.33626465       0.00000000
Si       1.67097933       1.60186086       0.77124658       0.00000000
Si       2.56653837       0.31392459      -2.28443539       0.00000000
Si       0.15495048       3.42122580       0.54998844       0.00000000
Si      -0.38374353      -2.46342267      -2.43184931       0.00000000
Si       2.26758429       0.75828321       2.92384670       0.00000000
Si      -0.97956657      -3.14038620       2.05988308       0.00000000
Si      -3.16801404       0.12108357      -2.29308257       0.00000000
