10
Lattice="16.28999089631971 0.0 0.0 0.0 16.28999089631971 0.0 0.0 0.0 34.31420841018396" Properties=species:S:1:pos:R:3:initial_magmoms:R:1 pbc="T T T"
Si       2.25983025      -0.25801731      -0.49285525       0.00000000
Si      -0.05633082      -1.10954448       2.11993298       0.00000000
Si      -1.58869854      -1.01274930      -1.50128177       0.00000000
Si       0.15087798       2.38588227       0.30738685       0.00000000
Si       2.98682037       0.96326028       1.37431913       0.00000000
Si       1.47212730       0.32988879       3.21431664       0.00000000
Si       2.33100126       0.61235739      -2.70979455       0.00000000
Si      -1.46846205      -3.29103612      -0.69455428       0.00000000
Si       2.69407278      -2.52561789      -0.19933135       0.00000000
Si      -0.58881834       3.25865160      -1.68362758       0.00000000
