10
Lattice="16.28999089631971 0.0 0.0 0.0 16.28999089631971 0.0 0.0 0.0 34.31420841018396" Properties=species:S:1:pos:R:3:initial_magmoms:R:1 pbc="T T T"
Si       1.28532987       1.24813980       1.40859904       0.00000000
Si      -2.02123062      -0.73707363       0.91492025       0.00000000
Si      -0.77278131       1.35840681      -1.75270212       0.00000000
Si       1.46373795      -1.72252089      -0.67183826       0.00000000
Si       0.02992473       3.14126586       0.86533619       0.00000000
Si      -2.04426468      -2.45534283      -0.75518752       0.00000000
Si       2.06347059      -2.39637303       1.59684689       0.00000000
Si       0.14248863       0.33347259      -3.57876805       0.00000000
Si      -0.06472017      -3.16195416      -1.76622192       0.00000000
Si       3.30612066       1.66752585       0.36071116       0.00000000
