10
Lattice="16.28999089631971 0.0 0.0 0.0 16.28999089631971 0.0 0.0 0.0 34.31420841018396" Properties=species:S:1:pos:R:3:initial_magmoms:R:1 pbc="T T T"
Si      -0.50340987      -1.79688474       1.34618146       0.00000000
Si       1.97954451      -0.70661133      -1.01103440       0.00000000
Si      -2.00798685       0.02570562      -1.19924794       0.00000000
Si       0.02303406       1.71826920       1.67010777       0.00000000
Si      -3.11603265       0.62002998       0.77697706       0.00000000
Si       2.04426468       2.45534283       0.75518752       0.00000000
Si      -1.94036706       2.73618243       0.82309538       0.00000000
Si       3.50800263       0.73282194       0.08334926       0.00000000
Si      -0.17086581      -3.59100018      -0.11982528       0.00000000
Si      -1.95838380       1.93697874      -2.53266451       0.00000000
