10
Lattice="16.28999089631971 0.0 0.0 0.0 16.28999089631971 0.0 0.0 0.0 34.31420841018396" Properties=species:S:1:pos:R:3:initial_magmoms:R:1 pbc="T T T"
Si       1.35371529       1.36306575       1.37587356       0.00000000
Si      -1.36057338      -1.35550719       1.38290798       0.00000000
Si      -1.52384805       1.10729646      -1.44555890       0.00000000
Si       1.29816639      -1.31673699      -1.53994704       0.00000000
Si       2.71018359      -2.70474273      -0.02191307       0.00000000
Si      -0.36359280      -2.40738507      -2.95823440       0.00000000
Si       2.70558981       2.71870634       0.00206229       0.00000000
Si      -2.70881523      -2.71671588       0.02674451       0.00000000
Si      -2.72318301       2.70299970      -0.01441541       0.00000000
Si      -0.24532740       2.71557939      -2.71432887       0.00000000
