10
Lattice="16.28999089631971 0.0 0.0 0.0 16.28999089631971 0.0 0.0 0.0 34.31420841018396" Properties=species:S:1:pos:R:3:initial_magmoms:R:1 pbc="T T T"
Si      -0.62718129       0.80244540      -2.05223101       0.00000000
Si       0.57182787       1.94674527       1.19729203       0.00000000
Si       2.00645559      -1.32056514      -0.30272012       0.00000000
Si      -2.09432385      -0.62719758       1.10931035       0.00000000
Si       0.40834143       0.79619004       3.29217562       0.00000000
Si      -1.14363945      -2.57680107       1.92942039       0.00000000
Si       0.65568879      -1.56304179       3.01574021       0.00000000
Si       1.12254390      -3.10256082      -1.52907630       0.00000000
Si      -2.75820651       1.75868469      -1.84857607       0.00000000
Si       2.59548570      -2.06404074       1.81940898       0.00000000
