10
Lattice="16.28999089631971 0.0 0.0 0.0 16.28999089631971 0.0 0.0 0.0 34.31420841018396" Properties=species:S:1:pos:R:3:initial_magmoms:R:1 pbc="T T T"
Si      -0.00847080      -1.33393923      -1.95539626       0.00000000
Si      -1.18425042       2.05646589      -0.11344284       0.00000000
Si       2.35685349       0.42182955      -0.07137359       0.00000000
Si      -0.92716164      -1.43275437       1.86861558       0.00000000
Si       3.08703645      -1.80807597      -0.47758542       0.00000000
Si       1.10143206      -2.68650119       2.36394145       0.00000000
Si       1.45200915      -3.13344829      -1.51082113       0.00000000
Si      -1.97394727      -2.67003037      -1.87585588       0.00000000
Si      -2.61522918      -2.74953860       0.43932506       0.00000000
Si       2.94083370       2.05397352      -1.70507397       0.00000000
