10
Lattice="16.28999089631971 0.0 0.0 0.0 16.28999089631971 0.0 0.0 0.0 34.31420841018396" Properties=species:S:1:pos:R:3:initial_magmoms:R:1 pbc="T T T"
Si       1.35687555       1.35573525       1.35836301       0.00000000
Si      -1.35765747       1.35765747      -1.35702476       0.00000000
Si      -1.35886293      -1.35706614       1.35771104       0.00000000
Si       1.35839052      -1.35808590      -1.35729927       0.00000000
Si      -2.71564074       0.00021177      -2.71384363       0.00000000
Si      -2.71487511      -2.71470338       0.00048040       0.00000000
Si       2.71591767      -0.00055386      -2.71374069       0.00000000
Si      -2.71663443       0.00125433       2.71312303       0.00000000
Si      -2.71485882       2.71495656       0.00109806       0.00000000
Si       2.71510317       2.71500543       0.00037746       0.00000000
