10
Lattice="16.28999089631971 0.0 0.0 0.0 16.28999089631971 0.0 0.0 0.0 34.31420841018396" Properties=species:S:1:pos:R:3:initial_magmoms:R:1 pbc="T T T"
Si       0.05005917      -0.35038976      -2.36634345       0.00000000
Si       0.28320165       2.13469047       1.17581132       0.00000000
Si       0.65125791      -1.54588940       1.80376169       0.00000000
Si       2.45078163      -1.45258582      -0.60725889       0.00000000
Si       2.76970725      -0.43946022       1.44637901       0.00000000
Si       3.56053788       0.81282213      -1.01896099       0.00000000
Si       2.70242955       1.94660613       2.06454982       0.00000000
Si      -3.25034370       1.56805911       1.68386778       0.00000000
Si       0.06804333      -0.99798567       4.08081952       0.00000000
Si       1.26301257       0.97782354      -3.89624329       0.00000000
