10
Lattice="16.28999089631971 0.0 0.0 0.0 16.28999089631971 0.0 0.0 0.0 34.31420841018396" Properties=species:S:1:pos:R:3:initial_magmoms:R:1 pbc="T T T"
Si       0.36395118      -2.29935535      -0.08588851       0.00000000
Si       1.96547647       1.33609114      -0.07954038       0.00000000
Si      -1.48328662       0.50133941      -1.80719311       0.00000000
Si      -0.64128191      -0.07950823       2.31518094       0.00000000
Si       3.42595642      -0.46341792       0.36503475       0.00000000
Si      -2.73804016       0.87374836       2.19463505       0.00000000
Si       1.25813209      -2.60493946      -2.22019915       0.00000000
Si      -2.14961278       2.75286502      -1.32271053       0.00000000
Si      -0.11573068       0.76292260      -3.69447563       0.00000000
Si      -1.69218958      -3.38526304       0.13488923       0.00000000
