10
Lattice="16.28999089631971 0.0 0.0 0.0 16.28999089631971 0.0 0.0 0.0 34.31420841018396" Properties=species:S:1:pos:R:3:initial_magmoms:R:1 pbc="T T T"
Si      -1.35542574       1.35638685      -1.36018167       0.00000000
Si       1.35868374      -1.35971001      -1.35990715       0.00000000
Si       1.36451556       1.36735002       1.37685838       0.00000000
Si      -1.36562328      -1.36505313       1.38149080       0.00000000
Si       2.67755472      -0.08338851       2.73806948       0.00000000
Si       2.71394658       2.71370223      -0.00223042       0.00000000
Si      -2.71482624      -2.71419093      -0.00514713       0.00000000
Si      -2.71492398       2.71526607       0.00257357       0.00000000
Si      -2.71305063      -0.00048870      -2.71717211       0.00000000
Si       0.00229689       2.71448415      -2.71754957       0.00000000
