10
Lattice="16.28999089631971 0.0 0.0 0.0 16.28999089631971 0.0 0.0 0.0 34.31420841018396" Properties=species:S:1:pos:R:3:initial_magmoms:R:1 pbc="T T T"
Si      -1.08209583      -1.54509021      -1.33506365       0.00000000
Si       1.57227822       1.13534784      -1.37871135       0.00000000
Si       1.21542948      -1.71009162       1.54221864       0.00000000
Si      -1.73734479       1.96358031       0.14930120       0.00000000
Si      -2.29504923      -2.87330350       0.19483618       0.00000000
Si      -2.47089978      -0.14631678      -2.73529002       0.00000000
Si      -2.07953253       1.77997572       2.53801753       0.00000000
Si       0.25923906       2.58608637      -2.73992244       0.00000000
Si       3.09438324       2.31987519      -0.03259852       0.00000000
Si       3.24938259      -0.73404369       2.09062863       0.00000000
