10
Lattice="16.28999089631971 0.0 0.0 0.0 16.28999089631971 0.0 0.0 0.0 34.31420841018396" Properties=species:S:1:pos:R:3:initial_magmoms:R:1 pbc="T T T"
Si      -0.43424253       2.26760058      -0.29352390       0.00000000
Si       1.07561241      -0.42792201      -2.04996627       0.00000000
Si       1.79097147      -0.40340556       1.52722333       0.00000000
Si      -1.94298975      -1.38393324       0.37412802       0.00000000
Si       2.42237187      -2.55832821       0.59518028       0.00000000
Si      -2.69407278       2.52561789       0.19933135       0.00000000
Si       2.53421901      -2.20773483      -1.77164357       0.00000000
Si       0.29274759       3.48887817       1.57365048       0.00000000
Si      -1.31458671      -3.61165590      -0.19541953       0.00000000
Si      -2.63570571      -0.98546355       2.63217577       0.00000000
