10
Lattice="16.28999089631971 0.0 0.0 0.0 16.28999089631971 0.0 0.0 0.0 34.31420841018396" Properties=species:S:1:pos:R:3:initial_magmoms:R:1 pbc="T T T"
Si      -1.05968079      -1.71431073      -1.20057045       0.00000000
Si       1.22699538      -1.44458091       1.51519619       0.00000000
Si      -1.49402106       1.25250552       1.48807079       0.00000000
Si       1.35415512       1.31515686      -1.66580275       0.00000000
Si       2.53532673       2.58478317       0.02947249       0.00000000
Si       2.53881279      -2.83301019       0.12919650       0.00000000
Si       0.62565003      -3.62318922      -1.14826523       0.00000000
Si      -1.55722626      -0.88503570      -3.41044102       0.00000000
Si       2.58080841      -0.11315034       2.88867119       0.00000000
Si      -0.13351284       2.60211573       2.88578879       0.00000000
