10
Lattice="16.28999089631971 0.0 0.0 0.0 16.28999089631971 0.0 0.0 0.0 34.31420841018396" Properties=species:S:1:pos:R:3:initial_magmoms:R:1 pbc="T T T"
Si      -1.35739683      -1.35757602       1.35692182       0.00000000
Si      -1.35720135       1.35738054      -1.35760810       0.00000000
Si       1.35786924      -1.35736425      -1.35719633       0.00000000
Si       1.35812988       1.35705474       1.35812281       0.00000000
Si       0.00053757       2.71466334      -2.71494169       0.00000000
Si      -0.00027693      -2.71524978      -2.71446129       0.00000000
Si      -2.71467963      -2.71531494      -0.00044608       0.00000000
Si      -2.71489140       2.71511946      -0.00006863       0.00000000
Si       2.71562445       2.71471221      -0.00003431       0.00000000
Si       2.71546155      -2.71498914      -0.00003431       0.00000000
