10
Lattice="16.28999089631971 0.0 0.0 0.0 16.28999089631971 0.0 0.0 0.0 34.31420841018396" Properties=species:S:1:pos:R:3:initial_magmoms:R:1 pbc="T T T"
Si      -1.23794226       1.32877530       1.50612008       0.00000000
Si       1.34641737       1.36143675      -1.38615754       0.00000000
Si      -1.37472939      -1.34763912      -1.37963783       0.00000000
Si       1.44524880      -1.35804843       1.58504280       0.00000000
Si      -2.41142499      -0.44189883       2.61042055       0.00000000
Si      -2.69824302       2.70182682      -0.02268170       0.00000000
Si       2.70471015      -2.69555517      -0.00535302       0.00000000
Si       2.69073333       2.71013472      -0.01712280       0.00000000
Si      -2.71586880      -2.71938744       0.00219611       0.00000000
Si       2.69907381       0.01001835      -2.74373132       0.00000000
