10
Lattice="16.28999089631971 0.0 0.0 0.0 16.28999089631971 0.0 0.0 0.0 34.31420841018396" Properties=species:S:1:pos:R:3:initial_magmoms:R:1 pbc="T T T"
Si       1.35265644      -1.35141840      -1.35757379       0.00000000
Si       1.34431596       1.34869797       1.36903474       0.00000000
Si      -1.36125756       1.36218609      -1.35544630       0.00000000
Si      -1.34641737      -1.36143675       1.38615754       0.00000000
Si      -0.18451683       2.50245351       2.83291400       0.00000000
Si       2.70772380      -2.71063971       0.00171571       0.00000000
Si      -0.00392589      -2.70985779      -2.71360343       0.00000000
Si       2.71060713       0.00493587      -2.71463286       0.00000000
Si      -2.72114676      -2.70907587       0.00651970       0.00000000
Si       2.71093293       2.72100015       0.00370594       0.00000000
