10
Lattice="16.28999089631971 0.0 0.0 0.0 16.28999089631971 0.0 0.0 0.0 34.31420841018396" Properties=species:S:1:pos:R:3:initial_magmoms:R:1 pbc="T T T"
Si       2.24933949       0.05919786       0.56234156       0.00000000
Si      -0.72699012      -1.22127759      -1.86717438       0.00000000
Si      -0.53379072       2.09999277      -0.91814579       0.00000000
Si      -1.51469307      -0.63337149       1.83999751       0.00000000
Si      -2.83594239       1.42262199      -1.06693228       0.00000000
Si      -2.98682037      -0.96326028      -1.37431913       0.00000000
Si       1.87730847       0.95410530       2.88301277       0.00000000
Si       0.30447639       3.56936706       0.70752506       0.00000000
Si      -3.04315119      -2.07280476       0.74561385       0.00000000
Si       3.10746411      -2.11765113      -0.19023808       0.00000000
