10
Lattice="16.28999089631971 0.0 0.0 0.0 16.28999089631971 0.0 0.0 0.0 34.31420841018396" Properties=species:S:1:pos:R:3:initial_magmoms:R:1 pbc="T T T"
Si      -1.35769005      -1.35596331       1.35702476       0.00000000
Si       1.35819504       1.35821363       1.35692182       0.00000000
Si       1.36060596      -1.35703845      -1.35743653       0.00000000
Si      -1.36001952       1.35878541      -1.36148561       0.00000000
Si       2.71293660      -2.71409319       0.00034314       0.00000000
Si      -2.71463076      -2.71410948       0.00003431       0.00000000
Si       0.00045612      -2.71406061       2.71494169       0.00000000
Si       2.71529865       0.00113023       2.71446129       0.00000000
Si      -2.71507059       0.00159614       2.71470149       0.00000000
Si      -0.00019548       2.71629953       2.71422109       0.00000000
