10
Lattice="16.28999089631971 0.0 0.0 0.0 16.28999089631971 0.0 0.0 0.0 34.31420841018396" Properties=species:S:1:pos:R:3:initial_magmoms:R:1 pbc="T T T"
Si      -1.34431596      -1.34869797      -1.36903474       0.00000000
Si       1.36661697       1.37230218      -1.36532880       0.00000000
Si       1.45808532      -1.25949393       1.38104472       0.00000000
Si      -1.52883279       1.15375554       1.46387926       0.00000000
Si       0.40045707       1.97330544       2.60942544       0.00000000
Si       2.34351198       0.54006237       2.69335804       0.00000000
Si      -2.69073333      -2.71013472       0.01712280       0.00000000
Si       0.00834048      -2.70011637      -2.72660852       0.00000000
Si      -2.70557352       0.01348812      -2.72448104       0.00000000
Si      -2.71137276       2.72590344       0.02113756       0.00000000
