10
Lattice="16.28999089631971 0.0 0.0 0.0 16.28999089631971 0.0 0.0 0.0 34.31420841018396" Properties=species:S:1:pos:R:3:initial_magmoms:R:1 pbc="T T T"
Si      -0.55227987       2.32214571       0.04855463       0.00000000
Si      -1.95688512      -1.06227090       0.88980224       0.00000000
Si       2.19400236      -0.02298519       1.00979909       0.00000000
Si       0.43142436      -0.78436350      -2.44077101       0.00000000
Si       1.24724385       2.41544929      -2.36246594       0.00000000
Si      -1.36785501      -1.80574650       3.01193133       0.00000000
Si       1.56616947       3.42857489      -0.30882805       0.00000000
Si       2.73235428       2.23576375       1.35853458       0.00000000
Si      -1.13549445       2.87004943       2.32561246       0.00000000
Si      -2.84079681      -2.84426658      -0.33655394       0.00000000
