10
Lattice="16.28999089631971 0.0 0.0 0.0 16.28999089631971 0.0 0.0 0.0 34.31420841018396" Properties=species:S:1:pos:R:3:initial_magmoms:R:1 pbc="T T T"
Si      -0.58903011       0.74347560      -2.12212909       0.00000000
Si       1.59075108       1.22430753       1.18370359       0.00000000
Si      -1.93979691       0.50099895       1.19633123       0.00000000
Si       0.98002269      -2.14529526       0.17016425       0.00000000
Si      -1.20010059      -0.37177038       3.18734566       0.00000000
Si       1.10205108       0.30560040       3.33613215       0.00000000
Si       1.36785501       1.80574650      -3.01193133       0.00000000
Si      -3.73912515      -0.51276033       0.11001141       0.00000000
Si      -2.59548570       2.06404074      -1.81940898       0.00000000
Si      -1.47294180      -1.03852008      -3.34848527       0.00000000
