10
Lattice="16.28999089631971 0.0 0.0 0.0 16.28999089631971 0.0 0.0 0.0 34.31420841018396" Properties=species:S:1:pos:R:3:initial_magmoms:R:1 pbc="T T T"
Si      -0.64288485      -0.00092853      -2.26068994       0.00000000
Si       0.95249259      -1.91948328       1.08968261       0.00000000
Si      -1.81517841       0.84266541       1.36025030       0.00000000
Si       1.89001467       1.56081006       0.05116251       0.00000000
Si       2.13346872      -2.59734276      -1.11301629       0.00000000
Si       2.13366420      -0.64985697       2.78495785       0.00000000
Si       1.37790594       0.41845752      -3.30857782       0.00000000
Si      -0.54208233       1.99676304       2.95880745       0.00000000
Si       0.96427026       3.12520392       1.58526478       0.00000000
Si       1.78932618       2.49432480      -2.24415048       0.00000000
