10
Lattice="16.28999089631971 0.0 0.0 0.0 16.28999089631971 0.0 0.0 0.0 34.31420841018396" Properties=species:S:1:pos:R:3:initial_magmoms:R:1 pbc="T T T"
Si       1.35694071      -1.35707725      -1.35678456       0.00000000
Si      -1.35710361       1.35708340      -1.35753947       0.00000000
Si      -1.35715248      -1.35735418       1.35819144       0.00000000
Si       1.35785295       1.35731635       1.35767673       0.00000000
Si       2.71332989      -0.00119497      -2.71363775       0.00000000
Si       0.00042354       2.71461544      -2.71398089       0.00000000
Si       2.71459578      -2.71465327      -0.00003431       0.00000000
Si      -0.00236205      -2.71522342      -2.71411815       0.00000000
Si       2.71588737      -0.00238456       2.71346617       0.00000000
Si       2.71471954       2.71492495       0.00006863       0.00000000
