10
Lattice="16.28999089631971 0.0 0.0 0.0 16.28999089631971 0.0 0.0 0.0 34.31420841018396" Properties=species:S:1:pos:R:3:initial_magmoms:R:1 pbc="T T T"
Si      -0.31892562      -1.01312560      -2.05363789       0.00000000
Si       1.16618481      -1.19281114       1.66736263       0.00000000
Si      -2.11844934      -1.10642918       0.35738268       0.00000000
Si      -0.06727770       2.38606635       0.61817081       0.00000000
Si       0.79083063       1.25228235      -2.46534000       0.00000000
Si      -2.76970725       0.43946022      -1.44637901       0.00000000
Si       2.37617343       2.33511123       0.32303414       0.00000000
Si      -0.23892543       1.99981416       2.94230776       0.00000000
Si      -2.48650560       2.57415069      -0.27056768       0.00000000
Si       0.62783289      -3.45156008       1.31862714       0.00000000
