10
Lattice="16.28999089631971 0.0 0.0 0.0 16.28999089631971 0.0 0.0 0.0 34.31420841018396" Properties=species:S:1:pos:R:3:initial_magmoms:R:1 pbc="T T T"
Si      -0.03748329      -0.18710694       2.35392170       0.00000000
Si      -1.79097147       0.40340556      -1.52722333       0.00000000
Si       1.60924023       1.77463260      -0.14381093       0.00000000
Si       0.63140040      -2.15492265      -0.93204305       0.00000000
Si      -0.71535906      -0.02451645      -3.57718960       0.00000000
Si      -0.09653454      -2.51727741       2.74277053       0.00000000
Si       2.32938855       1.67233140      -2.40813818       0.00000000
Si       0.74324754      -1.80432927      -3.29886690       0.00000000
Si       2.01121227       0.72941733       3.18940451       0.00000000
Si      -2.22521400       2.67100614      -1.82074723       0.00000000
