10
Lattice="16.28999089631971 0.0 0.0 0.0 16.28999089631971 0.0 0.0 0.0 34.31420841018396" Properties=species:S:1:pos:R:3:initial_magmoms:R:1 pbc="T T T"
Si      -1.35741312      -1.35713619       1.35767673       0.00000000
Si       1.35804584       1.35809730       1.35784830       0.00000000
Si      -1.35641943       1.35883035      -1.35939244       0.00000000
Si       1.36089171      -1.35560493      -1.36097089       0.00000000
Si       2.71541987      -2.71437012       0.00178434       0.00000000
Si       0.00024749      -2.71420722       2.71569660       0.00000000
Si      -2.71524978       0.00070047       2.71483874       0.00000000
Si      -2.71612944      -2.71432125       0.00157845       0.00000000
Si       2.71537100       0.00037467       2.71573091       0.00000000
Si      -0.00018159       2.71614573       2.71535346       0.00000000
