10
Lattice="16.28999089631971 0.0 0.0 0.0 16.28999089631971 0.0 0.0 0.0 34.31420841018396" Properties=species:S:1:pos:R:3:initial_magmoms:R:1 pbc="T T T"
Si      -2.32283997      -0.49969575      -0.10596233       0.00000000
Si       0.16983954       1.50671097       1.85585068       0.00000000
Si      -0.15374502       1.07466759      -2.14059015       0.00000000
Si       1.30785894      -2.19374172       0.15530619       0.00000000
Si       1.10705211      -0.06792930       3.32628397       0.00000000
Si      -2.16298620      -2.07979317      -1.89771404       0.00000000
Si      -0.59225553      -3.47130126      -0.68820615       0.00000000
Si      -1.03917168      -0.72488871      -3.45290347       0.00000000
Si      -2.75462271      -1.83262500       1.77617305       0.00000000
Si      -3.45266550       1.65750750      -0.20664028       0.00000000
