10
Lattice="16.28999089631971 0.0 0.0 0.0 16.28999089631971 0.0 0.0 0.0 34.31420841018396" Properties=species:S:1:pos:R:3:initial_magmoms:R:1 pbc="T T T"
Si       0.49174623       2.25570888      -0.29383273       0.00000000
Si      -0.72014832       0.10230120       2.26432725       0.00000000
Si      -1.43291727      -0.15775236      -1.92849390       0.00000000
Si       1.56314183      -1.84409316      -0.03417697       0.00000000
Si      -3.04474761      -1.69684785      -1.16905142       0.00000000
Si      -2.32938855      -1.67233140       2.40813818       0.00000000
Si      -0.74891646       3.06936180      -2.09481497       0.00000000
Si       0.68308857      -3.40715124      -1.58895462       0.00000000
Si      -0.02968038      -0.57565602      -3.85087988       0.00000000
Si      -0.18743274       3.60883773       1.50437005       0.00000000
