10
Lattice="16.28999089631971 0.0 0.0 0.0 16.28999089631971 0.0 0.0 0.0 34.31420841018396" Properties=species:S:1:pos:R:3:initial_magmoms:R:1 pbc="T T T"
Si      -1.74151503      -1.29697722      -0.79667342       0.00000000
Si      -0.98070687       2.02430943       0.56282196       0.00000000
Si       1.64445921       0.24092910      -1.62467573       0.00000000
Si       1.24066269      -0.81365292       1.80098223       0.00000000
Si      -0.68400081      -3.22711416       0.16632106       0.00000000
Si      -1.15268040       2.72774421      -1.70702988       0.00000000
Si       0.58010319       2.70524772       2.18722318       0.00000000
Si       3.30051431       1.34143263      -0.38912334       0.00000000
Si       0.70724664       1.81556937      -3.09510901       0.00000000
Si       0.56148372       0.53947593       3.59918502       0.00000000
