10
Lattice="16.28999089631971 0.0 0.0 0.0 16.28999089631971 0.0 0.0 0.0 34.31420841018396" Properties=species:S:1:pos:R:3:initial_magmoms:R:1 pbc="T T T"
Si       1.83466192      -0.05781321       1.45711936       0.00000000
Si       0.67917897      -1.35312885      -1.79820278       0.00000000
Si      -1.39084020      -1.32968754       1.51253684       0.00000000
Si       0.01861947       2.16577179      -1.41196184       0.00000000
Si       0.84927915       1.83464496       2.55112556       0.00000000
Si       3.60012977       0.28272924      -0.09501610       0.00000000
Si      -0.53271558      -3.50653653       0.75995720       0.00000000
Si       2.88030236      -0.62960850      -2.13400181       0.00000000
Si      -0.56148372      -0.53947593      -3.59918502       0.00000000
Si      -1.54219059       1.48483350      -3.03636306       0.00000000
