10
Lattice="16.28999089631971 0.0 0.0 0.0 16.28999089631971 0.0 0.0 0.0 34.31420841018396" Properties=species:S:1:pos:R:3:initial_magmoms:R:1 pbc="T T T"
Si      -1.23118191      -1.44546057      -1.36398166       0.00000000
Si       1.34102538      -1.36503684       1.39734398       0.00000000
Si       0.98969895       1.60225086      -1.45553202       0.00000000
Si      -1.38689802       1.34744556       1.42069481       0.00000000
Si      -0.86121972       3.30738218      -1.26772421       0.00000000
Si      -0.64327581      -0.90477918      -3.63596099       0.00000000
Si      -2.75613768       2.63986848       0.00761090       0.00000000
Si       2.70186333       2.72290349      -0.11402618       0.00000000
Si       2.68559451       0.00521280       2.77830977       0.00000000
Si      -0.02697624      -2.71288773       2.77903037       0.00000000
