10
Lattice="16.28999089631971 0.0 0.0 0.0 16.28999089631971 0.0 0.0 0.0 34.31420841018396" Properties=species:S:1:pos:R:3:initial_magmoms:R:1 pbc="T T T"
Si       1.23118191       1.44546057       1.36398166       0.00000000
Si      -1.55631402      -1.28630727       1.28707319       0.00000000
Si       0.58790610       0.54068139      -2.27197932       0.00000000
Si      -1.79996355       0.92435976      -1.44672215       0.00000000
Si      -2.72570796       2.48875362       0.08738012       0.00000000
Si      -2.73748563      -2.55593358      -0.40820205       0.00000000
Si       2.22088086       3.04771143      -0.09155036       0.00000000
Si       2.57220729       0.08042373       2.76132564       0.00000000
Si      -0.16228098      -2.61884556       2.76616738       0.00000000
Si       2.58889071       1.77989427      -2.26405274       0.00000000
