10
Lattice="16.28999089631971 0.0 0.0 0.0 16.28999089631971 0.0 0.0 0.0 34.31420841018396" Properties=species:S:1:pos:R:3:initial_magmoms:R:1 pbc="T T T"
Si      -0.88005326      -1.56305808      -1.55477765       0.00000000
Si       2.23180005       0.83096919      -0.23350832       0.00000000
Si       0.40796350      -1.47300696       1.84126714       0.00000000
Si      -1.56314183       1.84409316       0.03417697       0.00000000
Si       1.93647864      -2.90440926       0.58917529       0.00000000
Si      -3.14928284      -1.63256751      -0.85655175       0.00000000
Si       1.27096535       0.02362050       3.49191874       0.00000000
Si       3.04657698       0.73482561       2.04365245       0.00000000
Si      -2.28329015       1.94639436       2.29850422       0.00000000
Si      -2.99605910       1.68634080      -1.89431693       0.00000000
