10
Lattice="16.28999089631971 0.0 0.0 0.0 16.28999089631971 0.0 0.0 0.0 34.31420841018396" Properties=species:S:1:pos:R:3:initial_magmoms:R:1 pbc="T T T"
Si       1.79129727       0.95557140      -1.33626465       0.00000000
Si       0.81173070      -2.18481480       0.72361843       0.00000000
Si      -0.07853409       1.18892565       2.18310547       0.00000000
Si      -2.28042081      -0.58000545      -2.01043628       0.00000000
Si       0.26208981       2.41145757      -2.44564363       0.00000000
Si      -0.36970155      -2.60907156      -2.41256471       0.00000000
Si      -1.48406787      -0.40790160       3.22673839       0.00000000
Si      -0.69862923      -2.53524528       2.55414522       0.00000000
Si       2.20297815       1.08144423       3.01145093       0.00000000
Si      -0.41062203      -3.87464166      -0.37179466       0.00000000
