10
Lattice="16.28999089631971 0.0 0.0 0.0 16.28999089631971 0.0 0.0 0.0 34.31420841018396" Properties=species:S:1:pos:R:3:initial_magmoms:R:1 pbc="T T T"
Si      -0.71982741      -0.91233774      -2.03898572       0.00000000
Si       2.06860194      -1.10082933       0.26919512       0.00000000
Si       0.19947105       2.33223930       0.29105328       0.00000000
Si      -1.76546785      -0.34054245       1.55213546       0.00000000
Si       3.00183975       0.60172002       1.59784201       0.00000000
Si      -3.60012977      -0.28272924       0.09501610       0.00000000
Si      -0.69470986       2.63782341       2.42536392       0.00000000
Si      -2.92095080      -1.63585809      -1.70318669       0.00000000
Si       0.59539950      -2.75975406      -2.59024378       0.00000000
Si       2.69236233      -2.06757567      -1.79271251       0.00000000
