10
Lattice="16.28999089631971 0.0 0.0 0.0 16.28999089631971 0.0 0.0 0.0 34.31420841018396" Properties=species:S:1:pos:R:3:initial_magmoms:R:1 pbc="T T T"
Si       1.35523333       1.35495333       1.35664730       0.00000000
Si      -1.35765507       1.35757602      -1.35675024       0.00000000
Si       1.35822743      -1.35804843      -1.35750516       0.00000000
Si      -1.35934923      -1.36086660       1.35805419       0.00000000
Si       0.00129160       2.71226871       2.71350049       0.00000000
Si      -0.00126589       2.71345830      -2.71360343       0.00000000
Si      -2.71459578       2.71465327       0.00003431       0.00000000
Si       2.71516163       2.71422207       0.00044608       0.00000000
Si       2.71628564      -0.00026064      -2.71422109       0.00000000
Si      -2.71506819      -2.71544526      -0.00051471       0.00000000
