10
Lattice="16.28999089631971 0.0 0.0 0.0 16.28999089631971 0.0 0.0 0.0 34.31420841018396" Properties=species:S:1:pos:R:3:initial_magmoms:R:1 pbc="T T T"
Si      -0.63315550       1.10354976       1.97677402       0.00000000
Si      -1.63922590      -1.74081456       0.22750333       0.00000000
Si       2.30822295      -0.60075891      -0.28779343       0.00000000
Si      -0.07059825       1.36112724      -2.06108408       0.00000000
Si      -0.70201333      -3.31545483       1.69793661       0.00000000
Si       0.95404177      -2.21495130       2.93348900       0.00000000
Si       2.85509454      -1.99508517       1.52427230       0.00000000
Si       1.24111067       0.05608647      -3.59911639       0.00000000
Si      -2.96080102       1.43010922       1.96431796       0.00000000
Si      -0.06928740      -0.29071134       3.88186562       0.00000000
