10
Lattice="16.28999089631971 0.0 0.0 0.0 16.28999089631971 0.0 0.0 0.0 34.385447050020396" Properties=species:S:1:pos:R:3:initial_magmoms:R:1 pbc="T T T"
Si       0.81594981      -1.94482417      -0.97885107       0.00000000
Si       1.29381696       1.94315265      -0.31404246       0.00000000
Si       0.08529444      -0.39031003       2.33604542       0.00000000
Si      -2.21110686      -0.04930983      -0.98363065       0.00000000
Si      -0.28983168       3.51262899       0.36637714       0.00000000
Si      -2.12817447       2.46837483       1.44164506       0.00000000
Si      -2.63160063      -2.37689738      -0.53606942       0.00000000
Si      -1.38041460       1.18890936       3.25506578       0.00000000
Si      -0.62783289      -3.71266109      -0.41534205       0.00000000
Si       0.91284273      -1.61980592      -3.33587162       0.00000000
