10
Lattice="16.28999089631971 0.0 0.0 0.0 16.28999089631971 0.0 0.0 0.0 34.385447050020396" Properties=species:S:1:pos:R:3:initial_magmoms:R:1 pbc="T T T"
Si      -1.20337488      -1.58234448      -1.29619454       0.00000000
Si       2.15853903       0.53296807      -0.86228434       0.00000000
Si       0.03890052      -0.93213986       2.24557726       0.00000000
Si      -1.38326535       1.98854473       0.27859105       0.00000000
Si       2.35607157       2.68893329       0.08273143       0.00000000
Si      -0.64011555      -3.54859635      -0.12306558       0.00000000
Si      -3.40900830      -0.68099205      -1.20868352       0.00000000
Si      -0.74339415       2.64218098       2.47864195       0.00000000
Si      -0.88555698       3.47580544      -1.49614602       0.00000000
Si      -1.04528043      -3.07318899       2.15356175       0.00000000
