10
Lattice="16.28999089631971 0.0 0.0 0.0 16.28999089631971 0.0 0.0 0.0 34.385447050020396" Properties=species:S:1:pos:R:3:initial_magmoms:R:1 pbc="T T T"
Si       1.35681039       1.35620766      -1.35667857       0.00000000
Si      -1.35726651       1.35283563       1.36008273       0.00000000
Si      -1.35799956      -1.35894438      -1.35595648       0.00000000
Si       1.35365013      -1.35879777       1.36365882       0.00000000
Si      -2.69935074       0.00495216       2.71827426       0.00000000
Si      -0.00110772       2.71388142      -2.71397608       0.00000000
Si       2.71448415       2.71352304       0.00079087       0.00000000
Si       2.71420722      -0.00171045      -2.71431994       0.00000000
Si      -2.71603170       2.71362078       0.00061894       0.00000000
Si      -2.71581993      -0.00105885      -2.71383854       0.00000000
