10
Lattice="16.28999089631971 0.0 0.0 0.0 16.28999089631971 0.0 0.0 0.0 34.385447050020396" Properties=species:S:1:pos:R:3:initial_magmoms:R:1 pbc="T T T"
Si      -1.35697329      -1.35777150      -1.35698804       0.00000000
Si       1.35777150       1.35769005      -1.35729751       0.00000000
Si      -1.35516510       1.35967743       1.35963572       0.00000000
Si       1.35876519      -1.36078515       1.35946379       0.00000000
Si       0.00428427       2.71850778       2.68698349       0.00000000
Si       0.01668096      -2.70866862       2.71765533       0.00000000
Si      -2.71469918       0.00003258      -2.71311644       0.00000000
Si       0.00048870       2.71368594      -2.71428555       0.00000000
Si       0.00021177      -2.71467963      -2.71445748       0.00000000
Si       2.71492398       0.00026064      -2.71459502       0.00000000
