10
Lattice="16.28999089631971 0.0 0.0 0.0 16.28999089631971 0.0 0.0 0.0 34.385447050020396" Properties=species:S:1:pos:R:3:initial_magmoms:R:1 pbc="T T T"
Si      -0.45983412       1.49982030      -1.66559760       0.00000000
Si       2.05324047       0.24700527       1.12089743       0.00000000
Si       0.02806767      -1.51479081      -1.86235124       0.00000000
Si      -1.59058818      -0.72495387       1.68182754       0.00000000
Si      -2.76747552       0.83355930      -1.62144666       0.00000000
Si      -2.26571094      -1.34385984      -2.21184512       0.00000000
Si      -0.28481436      -2.14220016       3.00198875       0.00000000
Si      -1.54787580       3.48017931       0.66491176       0.00000000
Si       1.13443560      -3.53624949      -1.47981293       0.00000000
Si       2.06286786       0.85579515       3.35684676       0.00000000
