10
Lattice="16.28999089631971 0.0 0.0 0.0 16.28999089631971 0.0 0.0 0.0 34.385447050020396" Properties=species:S:1:pos:R:3:initial_magmoms:R:1 pbc="T T T"
Si       1.03355163      -1.68894720       1.25689195       0.00000000
Si       1.06062561       0.10371843      -2.10442492       0.00000000
Si      -2.20807692      -0.90207504      -0.32198551       0.00000000
Si       0.74881872       1.99453131       1.33594414       0.00000000
Si       0.24492015      -1.22346045       3.45460464       0.00000000
Si       3.13242039       1.09954242      -1.61883337       0.00000000
Si      -0.41225103       1.22183145      -3.47578609       0.00000000
Si      -3.46657716       0.98626176      -1.02764404       0.00000000
Si       1.13013504       1.03125474       3.46657078       0.00000000
Si       2.63668311       2.73183300       0.04604214       0.00000000
