10
Lattice="16.28999089631971 0.0 0.0 0.0 16.28999089631971 0.0 0.0 0.0 34.385447050020396" Properties=species:S:1:pos:R:3:initial_magmoms:R:1 pbc="T T T"
Si      -1.46539953       2.01934098       0.06650149       0.00000000
Si       1.85543100       0.84745467       1.47558837       0.00000000
Si      -0.27766305      -0.41146911      -2.50223038       0.00000000
Si      -0.89987589      -1.96419933       1.60741537       0.00000000
Si      -1.98620712      -0.37532160       2.94412630       0.00000000
Si      -3.17196436       1.07944056       1.53352444       0.00000000
Si       0.73580301       2.32888356       2.94372743       0.00000000
Si       2.97059553       2.59636536       0.11725444       0.00000000
Si      -0.47944728       3.67275969       1.49417715       0.00000000
Si      -1.85251509       2.75019183      -2.46664142       0.00000000
