10
Lattice="16.28999089631971 0.0 0.0 0.0 16.28999089631971 0.0 0.0 0.0 34.385447050020396" Properties=species:S:1:pos:R:3:initial_magmoms:R:1 pbc="T T T"
Si       1.34464176      -1.55424519      -1.19819596       0.00000000
Si       0.13558167       2.11766742      -1.38628446       0.00000000
Si       0.27766305       0.41146911       2.50223038       0.00000000
Si      -2.30210280      -0.99007362      -0.57994527       0.00000000
Si      -1.57485204       3.16166094       0.03558896       0.00000000
Si      -1.18773648       2.43081009       2.56873187       0.00000000
Si       0.93478536      -3.69220995       0.06595132       0.00000000
Si       3.65547600      -1.04200614      -1.39639379       0.00000000
Si       2.03957316       3.46573008      -0.73715563       0.00000000
Si       0.70477056      -2.20788144      -3.39824686       0.00000000
