10
Lattice="16.28999089631971 0.0 0.0 0.0 16.28999089631971 0.0 0.0 0.0 34.385447050020396" Properties=species:S:1:pos:R:3:initial_magmoms:R:1 pbc="T T T"
Si       1.21525029      -1.34387613       1.44955028       0.00000000
Si       1.82224827       0.85201587      -1.28879276       0.00000000
Si      -0.98595225      -1.65341871      -1.42767566       0.00000000
Si      -1.50097689       1.36489023       1.41097322       0.00000000
Si       2.33487828      -2.82530502      -0.01858878       0.00000000
Si      -2.69251708      -2.59331913       0.03934729       0.00000000
Si       2.56950315       0.02432097       2.79900102       0.00000000
Si       2.68698663       2.76120387       0.04899241       0.00000000
Si       3.45004281      -1.07639433      -1.37692271       0.00000000
Si      -0.14476923      -2.68931610       2.80281781       0.00000000
