10
Lattice="16.28999089631971 0.0 0.0 0.0 16.28999089631971 0.0 0.0 0.0 34.385447050020396" Properties=species:S:1:pos:R:3:initial_magmoms:R:1 pbc="T T T"
Si      -1.35728280       1.35599589      -1.35698804       0.00000000
Si       1.35715248      -1.35742941      -1.35729751       0.00000000
Si      -1.35777150      -1.35769005       1.35729751       0.00000000
Si       1.35778779       1.35780408       1.35781329       0.00000000
Si      -0.00087966       2.71132389      -2.71597044       0.00000000
Si      -0.00026064       2.71406061       2.71325399       0.00000000
Si       0.00021177      -2.71327869      -2.71507642       0.00000000
Si       2.71293660      -0.00109143       2.71593605       0.00000000
Si      -2.71471221       2.71461447      -0.00003439       0.00000000
Si      -2.71625976      -0.00013032      -2.71311644       0.00000000
