10
Lattice="16.28999089631971 0.0 0.0 0.0 16.28999089631971 0.0 0.0 0.0 34.385447050020396" Properties=species:S:1:pos:R:3:initial_magmoms:R:1 pbc="T T T"
Si      -1.33889139       1.25661060      -1.42823473       0.00000000
Si       0.90979650       1.65949488       1.36503424       0.00000000
Si      -1.91128941      -0.95014683       1.01134533       0.00000000
Si       1.38041460      -1.45345896      -1.37077661       0.00000000
Si      -1.01590956       3.25042515       1.27941443       0.00000000
Si       0.63083025       0.87079824       3.52285979       0.00000000
Si      -2.77358427       2.49070842      -0.12433785       0.00000000
Si       2.65329891       2.62062117       0.09253129       0.00000000
Si      -1.17504657      -1.97288190       2.97661227       0.00000000
Si       0.01433520       2.60985348      -2.75926174       0.00000000
