10
Lattice="16.28999089631971 0.0 0.0 0.0 16.28999089631971 0.0 0.0 0.0 34.385447050020396" Properties=species:S:1:pos:R:3:initial_magmoms:R:1 pbc="T T T"
Si       1.35687555      -1.35736425       1.35612840       0.00000000
Si      -1.35757602      -1.35681039      -1.35715997       0.00000000
Si       1.35734796       1.35826020      -1.35736628       0.00000000
Si      -1.35614250       1.36067112       1.35671296       0.00000000
Si       0.00364896      -2.71060713       2.68715542       0.00000000
Si      -2.70985779      -0.00436572       2.69867455       0.00000000
Si      -2.71484905      -2.71308321      -0.00037824       0.00000000
Si       2.71492398      -2.71362078       0.00068771       0.00000000
Si       2.71531494       2.71404432       0.00048140       0.00000000
Si      -0.00014661      -2.71542897      -2.71411362       0.00000000
