10
Lattice="16.28999089631971 0.0 0.0 0.0 16.28999089631971 0.0 0.0 0.0 34.385447050020396" Properties=species:S:1:pos:R:3:initial_magmoms:R:1 pbc="T T T"
Si       1.35677781      -1.35353610       1.35705681       0.00000000
Si      -1.35796698      -1.35578412      -1.35784768       0.00000000
Si       1.35689184       1.35917105      -1.35736628       0.00000000
Si      -1.35449721       1.35917620       1.36451846       0.00000000
Si       2.71318095      -2.71208952       0.00000000       0.00000000
Si      -0.00039096      -2.71334385      -2.71517957       0.00000000
Si      -2.71531494      -2.71404432      -0.00048140       0.00000000
Si       2.71450044       0.00208512      -2.71535150       0.00000000
Si      -0.00055386       2.71561860      -2.71438871       0.00000000
Si       2.71479366       2.71635491       0.00055017       0.00000000
