10
Lattice="16.28999089631971 0.0 0.0 0.0 16.28999089631971 0.0 0.0 0.0 34.385447050020396" Properties=species:S:1:pos:R:3:initial_magmoms:R:1 pbc="T T T"
Si       1.25037153       1.54494360       1.27061175       0.00000000
Si       1.50726483      -1.19158092      -1.42634353       0.00000000
Si      -1.21222035       1.51762527      -1.41764400       0.00000000
Si      -0.87640200      -1.91340711       1.24014623       0.00000000
Si      -2.22340581       0.60750297       2.50786960       0.00000000
Si      -2.63407671      -2.67312384      -0.16360605       0.00000000
Si       2.79280647      -2.54321109       0.05326309       0.00000000
Si       0.15384276      -2.55397878      -2.79852994       0.00000000
Si      -2.55917529       0.16405659      -2.79794539       0.00000000
Si       1.04930406      -3.50433738       1.32576604       0.00000000
