10
Lattice="16.28999089631971 0.0 0.0 0.0 16.28999089631971 0.0 0.0 0.0 34.385447050020396" Properties=species:S:1:pos:R:3:initial_magmoms:R:1 pbc="T T T"
Si      -2.09227850       0.41981122       0.94254002       0.00000000
Si      -0.30290440      -0.09848771      -2.31720219       0.00000000
Si       1.10436589       2.10831859       0.29918794       0.00000000
Si       1.39584123      -1.90448575       0.47771728       0.00000000
Si       3.22403535      -0.52276795       0.23045139       0.00000000
Si       2.77467570       1.27479187       1.67924863       0.00000000
Si      -0.17074526       2.22233230      -2.98569004       0.00000000
Si      -2.23115075      -1.39672645      -2.66937813       0.00000000
Si       1.36796904      -1.58104780      -3.14259092       0.00000000
Si      -3.64528565      -1.29569587       0.54996115       0.00000000
