10
Lattice="16.28999089631971 0.0 0.0 0.0 16.28999089631971 0.0 0.0 0.0 34.385447050020396" Properties=species:S:1:pos:R:3:initial_magmoms:R:1 pbc="T T T"
Si       2.09350935      -0.97034643      -0.12406276       0.00000000
Si      -1.20567177      -1.98276993       0.29991004       0.00000000
Si      -0.28061154       1.45955142       1.85526783       0.00000000
Si       0.77182020       1.39077504      -1.95567339       0.00000000
Si       2.78953218       0.20277792      -2.05769507       0.00000000
Si       3.09220038      -0.01422117       1.70545036       0.00000000
Si       1.16317116       3.22738834       1.29175881       0.00000000
Si      -0.92900241      -2.48678253       2.63468320       0.00000000
Si       1.26006408       3.55240658      -1.06526174       0.00000000
Si      -3.44781108      -1.90496889      -0.33353902       0.00000000
