10
Lattice="16.28999089631971 0.0 0.0 0.0 16.28999089631971 0.0 0.0 0.0 34.385447050020396" Properties=species:S:1:pos:R:3:initial_magmoms:R:1 pbc="T T T"
Si      -0.56325933       1.96625187      -1.17312895       0.00000000
Si      -0.40516488       0.47540736       2.27662734       0.00000000
Si      -1.26509769      -1.96072956      -0.36854343       0.00000000
Si       2.36053503      -0.43803810       0.24991357       0.00000000
Si       0.67901607       2.61645649       2.36864284       0.00000000
Si       0.64011555       3.54859635       0.12306558       0.00000000
Si       2.41839711      -2.18681847       1.81390212       0.00000000
Si       0.77734251      -1.22121243       3.48121899       0.00000000
Si      -3.02000310      -2.15288640       1.25723580       0.00000000
Si      -0.19362294       1.84381623      -3.49559212       0.00000000
