10
Lattice="16.28999089631971 0.0 0.0 0.0 16.28999089631971 0.0 0.0 0.0 34.385447050020396" Properties=species:S:1:pos:R:3:initial_magmoms:R:1 pbc="T T T"
Si      -1.18638441      -1.91490579       0.76686467       0.00000000
Si      -1.18250739       1.69661979      -1.20459165       0.00000000
Si       0.85665852       1.63606986       1.56436679       0.00000000
Si       1.64105460      -0.96560604      -1.66731687       0.00000000
Si       1.94953833       3.09405744       0.00106595       0.00000000
Si       1.58319252       0.78317433      -3.23130542       0.00000000
Si      -0.77734251       1.22121243      -3.48121899       0.00000000
Si       2.11730904       0.40151592       3.17172714       0.00000000
Si      -0.18568971      -3.85802586      -0.41847112       0.00000000
Si      -0.60479883      -2.38751127       3.02629927       0.00000000
