10
Lattice="16.28999089631971 0.0 0.0 0.0 16.28999089631971 0.0 0.0 0.0 34.385447050020396" Properties=species:S:1:pos:R:3:initial_magmoms:R:1 pbc="T T T"
Si       1.26065052      -1.23455394       1.60736035       0.00000000
Si       1.09287981       1.45798758      -1.56330084       0.00000000
Si      -0.85665852      -1.63606986      -1.56436679       0.00000000
Si      -1.50780240       1.85218929       1.01825681       0.00000000
Si      -2.03916591       0.06054993      -2.76895844       0.00000000
Si      -0.59671899      -2.11439313       2.79971766       0.00000000
Si      -0.95498496       2.20159906      -2.67694293       0.00000000
Si       2.09862441       0.54789786       2.89203919       0.00000000
Si       2.48968215       2.84692904      -0.15951418       0.00000000
Si      -2.04304293      -3.55097565      -0.79750212       0.00000000
