10
Lattice="16.28999089631971 0.0 0.0 0.0 16.28999089631971 0.0 0.0 0.0 34.385447050020396" Properties=species:S:1:pos:R:3:initial_magmoms:R:1 pbc="T T T"
Si       0.19753254       2.15596521       0.94501577       0.00000000
Si      -2.15853903      -0.53296807       0.86228434       0.00000000
Si       1.93784211      -0.95637613       1.02214237       0.00000000
Si       0.00503361      -0.47965742      -2.37854586       0.00000000
Si       3.48083091      -0.91371750      -0.76493908       0.00000000
Si       1.01980287      -2.88508022       2.10972028       0.00000000
Si       2.46241269       2.54690892       1.33095824       0.00000000
Si      -2.07203913      -0.15451228      -3.34618726       0.00000000
Si      -0.83601909       3.84491241      -0.31187618       0.00000000
Si      -3.54180438       1.45557666       1.14087539       0.00000000
