10
Lattice="16.28999089631971 0.0 0.0 0.0 16.28999089631971 0.0 0.0 0.0 34.385447050020396" Properties=species:S:1:pos:R:3:initial_magmoms:R:1 pbc="T T T"
Si       0.46076265       0.98463276      -2.00952103       0.00000000
Si       1.03355163       1.58053725       1.48589713       0.00000000
Si      -1.64851542      -1.21731260       1.40094096       0.00000000
Si       1.29736818      -1.72167381      -1.39501837       0.00000000
Si       2.15989110       0.08531073       2.94481057       0.00000000
Si       2.94717051      -0.17627409      -2.27181337       0.00000000
Si       2.90295945       2.45630394       0.31650175       0.00000000
Si       2.40287274       2.21335488      -1.97431032       0.00000000
Si      -2.70011637      -2.71641356      -0.21724738       0.00000000
Si       2.54501928      -2.95750556       0.32638448       0.00000000
