10
Lattice="16.28999089631971 0.0 0.0 0.0 16.28999089631971 0.0 0.0 0.0 34.385447050020396" Properties=species:S:1:pos:R:3:initial_magmoms:R:1 pbc="T T T"
Si      -1.07952201       0.73492335      -1.86805923       0.00000000
Si      -0.46076265      -0.98463276       2.00952103       0.00000000
Si       1.94211009       1.22872212       0.03521072       0.00000000
Si       2.48640786      -1.16090685      -0.26229234       0.00000000
Si       0.83660553      -2.70630657       0.61450267       0.00000000
Si      -0.19430712       2.98963854      -1.85609308       0.00000000
Si       0.57278898       0.59590449       3.49541816       0.00000000
Si       2.44219680       1.47167118       2.32602279       0.00000000
Si       2.06044065       2.35336743      -2.07805127       0.00000000
Si      -3.39035625       0.22268430      -1.66986140       0.00000000
