10
Lattice="16.28999089631971 0.0 0.0 0.0 16.28999089631971 0.0 0.0 0.0 34.385447050020396" Properties=species:S:1:pos:R:3:initial_magmoms:R:1 pbc="T T T"
Si       1.35477414       1.35654975       1.38614348       0.00000000
Si      -1.35638685      -1.35941679       1.38751890       0.00000000
Si       1.58315994      -1.21819878      -1.43633594       0.00000000
Si      -1.59153300       1.22175000      -1.42560080       0.00000000
Si      -2.71116099       2.70317889       0.04253826       0.00000000
Si      -2.69500131      -2.72091870       0.00412969       0.00000000
Si       2.70949941      -2.71342530       0.02257750       0.00000000
Si       2.72471427       2.71551042       0.00355546       0.00000000
Si       2.71349046      -0.00109143       2.74842688       0.00000000
Si      -2.71625976       0.00153126       2.74901143       0.00000000
