10
Lattice="16.28999089631971 0.0 0.0 0.0 16.28999089631971 0.0 0.0 0.0 34.385447050020396" Properties=species:S:1:pos:R:3:initial_magmoms:R:1 pbc="T T T"
Si      -1.35749457      -1.35711990       1.35801960       0.00000000
Si       1.35775521       1.35840681       1.35812276       0.00000000
Si       1.35615879      -1.35954711      -1.36073606       0.00000000
Si      -1.35871632       1.35764118      -1.36228340       0.00000000
Si       2.71803537      -2.71160082      -0.00017193       0.00000000
Si      -2.71464705      -2.71507059       0.00137542       0.00000000
Si       0.00042354      -2.71441899       2.71572974       0.00000000
Si       2.71480995       0.00058644       2.71545466       0.00000000
Si      -2.71489140       0.00079821       2.71566097       0.00000000
Si       0.00026064       2.71534752       2.71555781       0.00000000
