10
Lattice="16.28999089631971 0.0 0.0 0.0 16.28999089631971 0.0 0.0 0.0 34.385447050020396" Properties=species:S:1:pos:R:3:initial_magmoms:R:1 pbc="T T T"
Si       1.13396319       1.31220837      -1.58035603       0.00000000
Si       2.03506083      -0.83600280       0.97121749       0.00000000
Si      -1.48484979      -1.31038389      -1.58867731       0.00000000
Si       0.28535193       2.99437893       1.18151901       0.00000000
Si       3.04002351       2.20248945      -0.41578906       0.00000000
Si      -3.30932979      -0.77094054       1.68519732       0.00000000
Si       2.36938050      -0.09721872      -3.03434547       0.00000000
Si      -2.92089474      -2.63612925      -0.23258329       0.00000000
Si      -0.34225290       2.62752813      -3.00848760       0.00000000
Si      -2.20296186      -2.79239922       2.06773563       0.00000000
