10
Lattice="16.28999089631971 0.0 0.0 0.0 16.28999089631971 0.0 0.0 0.0 34.385447050020396" Properties=species:S:1:pos:R:3:initial_magmoms:R:1 pbc="T T T"
Si       2.16832932       0.82129293      -0.03851172       0.00000000
Si      -0.08645103      -1.69298712      -1.60177818       0.00000000
Si      -2.25474777       0.63627111       0.22195818       0.00000000
Si      -0.11833056      -1.12464531       2.11326199       0.00000000
Si      -3.13996266      -1.61844408       0.20999204       0.00000000
Si      -2.63606409       1.59954768      -1.90866846       0.00000000
Si       3.44367342      -1.17411804       0.28244222       0.00000000
Si      -2.35133118      -2.08393083      -1.98772065       0.00000000
Si      -2.06044065      -2.35336743       2.07805127       0.00000000
Si       0.77703300      -3.70071333      -0.65373648       0.00000000
