10
Lattice="16.28999089631971 0.0 0.0 0.0 16.28999089631971 0.0 0.0 0.0 34.385447050020396" Properties=species:S:1:pos:R:3:initial_magmoms:R:1 pbc="T T T"
Si      -1.35668007       1.35694071      -1.35736628       0.00000000
Si      -1.35668007      -1.35738054       1.35801960       0.00000000
Si       1.35788553      -1.35769005      -1.35681611       0.00000000
Si       1.35689184       1.35819504       1.35781329       0.00000000
Si       0.00114030      -2.71270854      -2.71373538       0.00000000
Si       0.00275301       2.71384884      -2.71387293       0.00000000
Si      -2.71472850      -0.00112401       2.71346030       0.00000000
Si      -2.71425609       2.71450044      -0.00003439       0.00000000
Si       2.71562445       0.00255753      -2.71401047       0.00000000
Si      -2.71446786      -2.71518462       0.00020631       0.00000000
