10
Lattice="16.28999089631971 0.0 0.0 0.0 16.28999089631971 0.0 0.0 0.0 34.385447050020396" Properties=species:S:1:pos:R:3:initial_magmoms:R:1 pbc="T T T"
Si      -1.31070969       0.61006050      -1.75073601       0.00000000
Si       1.55157363      -0.94866444      -1.45058528       0.00000000
Si       0.93294459       2.22835797      -0.10793598       0.00000000
Si      -0.39128580      -1.27338930       2.03035863       0.00000000
Si      -2.04783219       2.82159090       0.65848168       0.00000000
Si       1.09778310       0.14053383      -3.43641473       0.00000000
Si      -2.74458807      -2.38013190      -0.29107297       0.00000000
Si      -0.50645610       0.36525438       3.65249300       0.00000000
Si      -2.12274990       1.66070034       2.61322667       0.00000000
Si      -3.04652322       1.86546564      -1.17103144       0.00000000
