10
Lattice="16.28999089631971 0.0 0.0 0.0 16.28999089631971 0.0 0.0 0.0 34.385447050020396" Properties=species:S:1:pos:R:3:initial_magmoms:R:1 pbc="T T T"
Si      -0.05786208       1.74878037      -1.56398855       0.00000000
Si       2.19660876       0.05768289       0.90058975       0.00000000
Si      -0.81143748      -2.14793424      -0.76129422       0.00000000
Si      -1.64105460       0.96560604       1.66731687       0.00000000
Si       0.91054584       0.65270772      -3.40478010       0.00000000
Si      -1.82674431      -2.89241982       1.24884575       0.00000000
Si       1.40006034       3.38330268      -0.44340059       0.00000000
Si      -2.41839711       2.18681847      -1.81390212       0.00000000
Si      -2.41043130      -1.73219715      -2.41183099       0.00000000
Si      -2.82743901      -0.94929975       2.43418154       0.00000000
