10
Lattice="16.28999089631971 0.0 0.0 0.0 16.28999089631971 0.0 0.0 0.0 34.385447050020396" Properties=species:S:1:pos:R:3:initial_magmoms:R:1 pbc="T T T"
Si      -0.95987196      -1.67718582       1.39508168       0.00000000
Si       1.77062526       1.06306911       1.27536180       0.00000000
Si       0.40438296      -1.21956714      -2.10531894       0.00000000
Si      -1.65152907       1.94557986       0.24600536       0.00000000
Si      -2.26538514      -0.32216733       2.83315752       0.00000000
Si       0.47654766       2.36949453       2.84607958       0.00000000
Si       0.06882525       0.63614079      -3.69244891       0.00000000
Si      -2.74584240      -2.77185753       0.01244754       0.00000000
Si       2.52850122       2.99019240      -0.05525744       0.00000000
Si      -3.50889858       1.06574067       1.43836266       0.00000000
