10
Lattice="16.28999089631971 0.0 0.0 0.0 16.28999089631971 0.0 0.0 0.0 34.385447050020396" Properties=species:S:1:pos:R:3:initial_magmoms:R:1 pbc="T T T"
Si      -0.92678697       0.04636134       2.26596784       0.00000000
Si      -2.13547239       0.50425695      -1.09067260       0.00000000
Si       0.36564534      -1.74876408      -1.73794462       0.00000000
Si       2.22343839       1.59865173       0.14820136       0.00000000
Si      -1.12016556       1.24874253      -3.10081258       0.00000000
Si       0.85918347       1.14103305       3.64860198       0.00000000
Si      -0.01567098      -0.78548751      -3.86857127       0.00000000
Si      -3.13616709       2.44737702       0.09466319       0.00000000
Si      -2.55458151       1.97477154       2.35409779       0.00000000
Si       1.81905543       2.81821887       2.25352030       0.00000000
