10
Lattice="16.28999089631971 0.0 0.0 0.0 16.28999089631971 0.0 0.0 0.0 34.385447050020396" Properties=species:S:1:pos:R:3:initial_magmoms:R:1 pbc="T T T"
Si      -1.29010284       1.35853713      -1.31539538       0.00000000
Si       1.32616890       1.38772881       1.34139767       0.00000000
Si      -1.38862476      -1.32717888       1.34456113       0.00000000
Si       1.29407760      -1.30642542      -1.57071778       0.00000000
Si      -2.12807673      -0.42391467      -2.60007422       0.00000000
Si       0.34860600       2.42173656      -2.64554591       0.00000000
Si       2.05195356       0.62069787      -2.90133702       0.00000000
Si      -0.47654766      -2.36949453      -2.84607958       0.00000000
Si       2.67766875      -2.66540238      -0.03405880       0.00000000
Si      -0.03240081      -2.67946065       2.70017376       0.00000000
