10
Lattice="16.28999089631971 0.0 0.0 0.0 16.28999089631971 0.0 0.0 0.0 34.385447050020396" Properties=species:S:1:pos:R:3:initial_magmoms:R:1 pbc="T T T"
Si      -1.35545832      -1.35852084      -1.35633472       0.00000000
Si       1.35765747       1.35744465      -1.35609402       0.00000000
Si       1.35682668      -1.35713619       1.35757259       0.00000000
Si      -1.35760860       1.35708593       1.35798522       0.00000000
Si      -2.71505430       2.71353348       0.00096279       0.00000000
Si       2.71472850      -2.71414206       0.00116911       0.00000000
Si       2.71463076       2.71451251       0.00044701       0.00000000
Si       2.71432125       0.00009774       2.71490449       0.00000000
Si       0.00011403       2.71457442      -2.71473256       0.00000000
Si      -0.00131949      -2.71417464       2.71535150       0.00000000
