10
Lattice="16.28999089631971 0.0 0.0 0.0 16.28999089631971 0.0 0.0 0.0 34.385447050020396" Properties=species:S:1:pos:R:3:initial_magmoms:R:1 pbc="T T T"
Si      -1.35431802      -1.33519356      -1.37005452       0.00000000
Si       1.36231641       1.37865528      -1.36744122       0.00000000
Si      -1.32678792       1.32797709       1.45086036       0.00000000
Si       1.29666771      -1.44937017       1.45873464       0.00000000
Si       2.30581692       0.38850021       2.62863135       0.00000000
Si       0.52673715       2.13051438       2.78350349       0.00000000
Si      -2.71611315      -2.69066817       0.00072209       0.00000000
Si       2.72186352      -2.69545743       0.00773673       0.00000000
Si       0.00208512      -2.69374698      -2.72711133       0.00000000
Si      -2.71109583       0.01834254      -2.72711133       0.00000000
