10
Lattice="16.28999089631971 0.0 0.0 0.0 16.28999089631971 0.0 0.0 0.0 34.385447050020396" Properties=species:S:1:pos:R:3:initial_magmoms:R:1 pbc="T T T"
Si       1.72496439       0.12096954      -1.52850275       0.00000000
Si       0.74543040       1.83159451       1.25850807       0.00000000
Si      -2.07611163       0.13336623      -1.13097237       0.00000000
Si       0.04611699      -2.08982781       1.12241039       0.00000000
Si      -2.73036690       2.26565460      -0.35509871       0.00000000
Si      -0.79755840       1.78893589       3.04558952       0.00000000
Si       2.70752832      -1.98412200      -1.52867467       0.00000000
Si       1.23240366      -3.46835277      -0.41561713       0.00000000
Si      -3.15398835      -1.89858321      -0.77425754       0.00000000
Si      -2.20511214      -2.87036316       1.17178792       0.00000000
