10
Lattice="16.28999089631971 0.0 0.0 0.0 16.28999089631971 0.0 0.0 0.0 34.385447050020396" Properties=species:S:1:pos:R:3:initial_magmoms:R:1 pbc="T T T"
Si       1.18575724      -1.45476216       1.41060186       0.00000000
Si      -1.25549148      -1.55318634      -1.25736337       0.00000000
Si      -1.52213402       1.27255851       1.38248143       0.00000000
Si       1.70656483       0.93990042      -1.46702295       0.00000000
Si      -2.25370425       0.01042560      -2.72051073       0.00000000
Si       3.17196436      -1.07944056      -1.53352444       0.00000000
Si       2.69251708       2.59331913      -0.03934729       0.00000000
Si       2.54774785      -0.09599697       2.76347052       0.00000000
Si       2.27208847      -3.04363989       0.07389093       0.00000000
Si      -0.16435958       2.61004896       2.76261088       0.00000000
