10
Lattice="16.28999089631971 0.0 0.0 0.0 16.28999089631971 0.0 0.0 0.0 34.385447050020396" Properties=species:S:1:pos:R:3:initial_magmoms:R:1 pbc="T T T"
Si      -1.58790033       1.81133397       0.14230498       0.00000000
Si       1.81965816       0.88630632       1.45097181       0.00000000
Si      -0.94828977      -1.85907996       1.36092659       0.00000000
Si       1.65960891       0.87928533      -1.69582243       0.00000000
Si      -1.54368927      -0.82124406      -2.44601014       0.00000000
Si      -2.08798704       1.56838491      -2.14850709       0.00000000
Si       0.39511395       2.18002554       2.77600544       0.00000000
Si      -2.33096868      -0.55965924       2.77061380       0.00000000
Si      -3.45730815       0.93556728       1.31170036       0.00000000
Si       3.37510296       2.05431561       0.12300820       0.00000000
