10
Lattice="16.28999089631971 0.0 0.0 0.0 16.28999089631971 0.0 0.0 0.0 34.385447050020396" Properties=species:S:1:pos:R:3:initial_magmoms:R:1 pbc="T T T"
Si      -1.35630540      -1.35557235       1.35705681       0.00000000
Si       1.35806472      -1.35672894      -1.35647226       0.00000000
Si      -1.35705474       1.35782037      -1.35733190       0.00000000
Si       1.35894438       1.35687555       1.35715997       0.00000000
Si       2.71495693      -0.00004887       2.71101893       0.00000000
Si       0.00322542      -2.71218726      -2.71562658       0.00000000
Si      -2.71101438      -0.00219915       2.71762094       0.00000000
Si       2.71736748       0.00114030      -2.71167226       0.00000000
Si      -2.71454931       2.71476108       0.00010316       0.00000000
Si      -2.71438641      -2.71500543       0.00027508       0.00000000
