10
Lattice="16.28999089631971 0.0 0.0 0.0 16.28999089631971 0.0 0.0 0.0 34.385447050020396" Properties=species:S:1:pos:R:3:initial_magmoms:R:1 pbc="T T T"
Si       2.38686523      -0.00863370      -0.18702255       0.00000000
Si      -0.33150150       2.13156279      -1.07492406       0.00000000
Si      -1.00691748      -1.50698790      -1.59160008       0.00000000
Si      -0.91002456      -0.31107384       2.26947516       0.00000000
Si       0.90199359       1.56392145      -3.03719946       0.00000000
Si       0.20818620      -0.81360405      -3.61535669       0.00000000
Si      -2.49238629       1.94509116      -1.98232213       0.00000000
Si      -3.05949006      -0.39065049      -2.15693153       0.00000000
Si       3.20444567       0.47143260       1.98613892       0.00000000
Si       2.97281816       1.50311088      -2.00560109       0.00000000
