10
Lattice="16.28999089631971 0.0 0.0 0.0 16.28999089631971 0.0 0.0 0.0 34.385447050020396" Properties=species:S:1:pos:R:3:initial_magmoms:R:1 pbc="T T T"
Si      -2.37887757       0.02808396       0.05405395       0.00000000
Si       0.70465653       1.42091154       1.80485874       0.00000000
Si       0.62926641      -2.06847162       1.06326739       0.00000000
Si       0.91002456       0.31107384      -2.26947516       0.00000000
Si       2.77745544       2.22229809       1.01358039       0.00000000
Si      -0.19052784      -1.94999445       3.24626310       0.00000000
Si       0.91667088       0.02717172       3.75362065       0.00000000
Si      -3.24737892      -1.72607211      -1.24667946       0.00000000
Si      -0.09689292      -1.19591406      -3.86107524       0.00000000
Si      -3.52522116       1.93144014      -0.77085338       0.00000000
