10
Lattice="16.28999089631971 0.0 0.0 0.0 16.28999089631971 0.0 0.0 0.0 34.385447050020396" Properties=species:S:1:pos:R:3:initial_magmoms:R:1 pbc="T T T"
Si      -0.81979425       0.11847717       2.18299571       0.00000000
Si      -1.22851035      -1.95574482      -0.51547252       0.00000000
Si       2.26962121      -0.54553581       0.45326922       0.00000000
Si      -0.62926641       2.06847162      -1.06326739       0.00000000
Si       0.28740447       2.09564334       2.69035327       0.00000000
Si       0.18316476      -1.84945257       3.03510195       0.00000000
Si       0.07539012       3.48938316       0.74159135       0.00000000
Si      -2.30870025      -1.47474999      -2.52341183       0.00000000
Si      -3.00814398       2.09655558      -1.00921343       0.00000000
Si       2.81133702      -2.46479103      -0.76132861       0.00000000
