10
Lattice="16.28999089631971 0.0 0.0 0.0 16.28999089631971 0.0 0.0 0.0 34.385447050020396" Properties=species:S:1:pos:R:3:initial_magmoms:R:1 pbc="T T T"
Si      -2.16832932      -0.82129293       0.03851172       0.00000000
Si       0.97124238       1.46715885      -1.51715554       0.00000000
Si       1.27534410      -1.99541097       0.32095394       0.00000000
Si      -0.32944896       2.08689561       1.89477673       0.00000000
Si       3.42801288      -0.98029962      -0.01592047       0.00000000
Si      -0.91875600       2.55160044      -2.36692357       0.00000000
Si       2.17821735       0.10360440       2.96014163       0.00000000
Si      -2.28665988      -1.94593824       2.15177371       0.00000000
Si      -2.25478035      -2.51428005      -1.56326645       0.00000000
Si       1.96889085       0.27891738      -3.24526592       0.00000000
