10
Lattice="16.28999089631971 0.0 0.0 0.0 16.28999089631971 0.0 0.0 0.0 34.385447050020396" Properties=species:S:1:pos:R:3:initial_magmoms:R:1 pbc="T T T"
Si       0.99764847      -1.18824147      -1.72811038       0.00000000
Si      -0.97124238      -1.46715885       1.51715554       0.00000000
Si      -1.88999838       1.08444159      -0.84976803       0.00000000
Si       1.72335168       1.25222859       1.07158867       0.00000000
Si      -0.51163632       1.95929604      -2.58478988       0.00000000
Si       0.00431685       2.47847463       2.31269769       0.00000000
Si      -2.05076439       2.73900060       0.81813340       0.00000000
Si      -1.30069134       0.61973676       3.41193228       0.00000000
Si       2.56327127      -0.42567399       2.68698349       0.00000000
Si       2.96425125      -2.13529320      -0.80939949       0.00000000
