10
Lattice="16.28999089631971 0.0 0.0 0.0 16.28999089631971 0.0 0.0 0.0 34.385447050020396" Properties=species:S:1:pos:R:3:initial_magmoms:R:1 pbc="T T T"
Si      -1.72335168      -1.25222859      -1.07158867       0.00000000
Si       1.29264312       1.12469418      -1.67271539       0.00000000
Si      -1.71903483       1.22624604       1.24110902       0.00000000
Si       0.83991959      -1.67790258       1.61539482       0.00000000
Si      -0.56083212       2.16979542      -2.76355992       0.00000000
Si      -0.72570321      -2.44047006      -2.79969905       0.00000000
Si       0.73341882      -3.69968706       0.42964640       0.00000000
Si      -0.49213719       2.77076610       2.56319581       0.00000000
Si       3.05954612       2.27496366      -0.45220327       0.00000000
Si       3.05677682      -0.95545737       2.12605338       0.00000000
