10
Lattice="16.28999089631971 0.0 0.0 0.0 16.28999089631971 0.0 0.0 0.0 34.385447050020396" Properties=species:S:1:pos:R:3:initial_magmoms:R:1 pbc="T T T"
Si       1.33837011       1.34405273       1.39136663       0.00000000
Si      -1.37810142      -1.36573731       1.39367046       0.00000000
Si      -1.35811359       1.41166601      -1.38453424       0.00000000
Si       1.36793646      -1.44679635      -1.61962423       0.00000000
Si      -2.35566432      -0.33172956      -2.59327312       0.00000000
Si      -0.65231676      -2.13276825      -2.84906424       0.00000000
Si       2.71311239       2.70771470       0.02542118       0.00000000
Si       2.69055414      -2.74931217      -0.01016434       0.00000000
Si       2.69193091      -0.00427980       2.75134621       0.00000000
Si      -2.74079250       2.71108673       0.02515297       0.00000000
