10
Lattice="16.28999089631971 0.0 0.0 0.0 16.28999089631971 0.0 0.0 0.0 34.385447050020396" Properties=species:S:1:pos:R:3:initial_magmoms:R:1 pbc="T T T"
Si      -1.36125756      -1.32072804       1.40548530       0.00000000
Si       1.35790249       1.38855960       1.39733595       0.00000000
Si      -1.32261768       1.30251582      -1.60945989       0.00000000
Si       0.97427299      -1.93197771      -1.44045876       0.00000000
Si      -2.71715571      -2.66955633       0.02837833       0.00000000
Si       2.72175668      -2.70422145       0.01670102       0.00000000
Si      -2.69055414       2.74931217       0.01016434       0.00000000
Si       0.00368154      -2.68626987       2.76133862       0.00000000
Si      -2.71129131       0.02850750       2.76333298       0.00000000
Si       2.71844981       0.02813283       2.76020390       0.00000000
