10
Lattice="16.28999089631971 0.0 0.0 0.0 16.28999089631971 0.0 0.0 0.0 34.385447050020396" Properties=species:S:1:pos:R:3:initial_magmoms:R:1 pbc="T T T"
Si      -1.35731538      -1.35567009      -1.35764136       0.00000000
Si      -1.35790182       1.35700587       1.35640349       0.00000000
Si       1.35861858       1.35645201      -1.35691927       0.00000000
Si       1.35739683      -1.35889551       1.35647226       0.00000000
Si       2.70865233       0.00721647      -2.71476695       0.00000000
Si      -2.71353933      -0.00338832      -2.71325399       0.00000000
Si       2.71454931       2.71316466      -0.00116911       0.00000000
Si       0.00125433       2.71151937      -2.71641745       0.00000000
Si      -0.00040725       2.71423980       2.71373538       0.00000000
Si      -2.71472850       2.71414206      -0.00116911       0.00000000
