10
Lattice="16.28999089631971 0.0 0.0 0.0 16.28999089631971 0.0 0.0 0.0 34.385447050020396" Properties=species:S:1:pos:R:3:initial_magmoms:R:1 pbc="T T T"
Si      -0.98256393       2.10509154       0.00017193       0.00000000
Si       0.10705788      -0.23539050      -2.33209109       0.00000000
Si       1.94059512      -0.71333910       1.14967806       0.00000000
Si      -1.47512466      -1.48423077       1.11305754       0.00000000
Si       2.83500639      -1.98684243      -0.61199253       0.00000000
Si      -2.70752832       1.98412200       1.52867467       0.00000000
Si       1.71185094      -1.87028748      -2.69888086       0.00000000
Si      -2.66141133      -0.10570581       2.65108506       0.00000000
Si      -1.55813850       2.67853212      -2.16219250       0.00000000
Si       0.43157097       2.00406096      -3.21916735       0.00000000
