10
Lattice="16.28999089631971 0.0 0.0 0.0 16.28999089631971 0.0 0.0 0.0 34.385447050020396" Properties=species:S:1:pos:R:3:initial_magmoms:R:1 pbc="T T T"
Si      -1.15295733       1.43678682      -1.43294554       0.00000000
Si       2.18600627      -0.78928308      -0.36802765       0.00000000
Si      -0.89264313      -2.22045732       0.28347378       0.00000000
Si       0.17920629       1.34963532       2.05308742       0.00000000
Si       0.21621717      -2.43120105       2.34618913       0.00000000
Si       2.47387175      -1.92340917       1.75592822       0.00000000
Si      -0.46923345       3.56403113      -0.60796943       0.00000000
Si      -0.38423223      -0.34226919       3.65479682       0.00000000
Si      -1.33957557       3.12224633       1.51887482       0.00000000
Si       3.67136594       0.95506056      -0.94807608       0.00000000
