10
Lattice="16.28999089631971 0.0 0.0 0.0 16.28999089631971 0.0 0.0 0.0 34.385447050020396" Properties=species:S:1:pos:R:3:initial_magmoms:R:1 pbc="T T T"
Si      -1.22689764      -1.54452006      -1.32208679       0.00000000
Si       0.34764489       1.13842665      -2.06398761       0.00000000
Si       2.25503352      -0.12377142       1.05188580       0.00000000
Si      -2.20077900       1.75528008      -0.28619024       0.00000000
Si      -0.25280451       3.22735851      -0.75537992       0.00000000
Si       0.88808097       3.39174090       1.36269603       0.00000000
Si       0.49213719      -2.77076610      -2.56319581       0.00000000
Si      -2.64362265       1.88199999       2.07904845       0.00000000
Si       1.67352124      -0.66652164       3.47748958       0.00000000
Si       3.08774411       2.08917621       1.30681965       0.00000000
