10
Lattice="16.28999089631971 0.0 0.0 0.0 16.28999089631971 0.0 0.0 0.0 34.385447050020396" Properties=species:S:1:pos:R:3:initial_magmoms:R:1 pbc="T T T"
Si       1.18224675       1.41731145      -1.35434036       0.00000000
Si      -0.15934878       0.67882059       2.20458978       0.00000000
Si      -2.12744468      -0.13100418      -1.11752765       0.00000000
Si       1.18925145      -2.08562499       0.28099803       0.00000000
Si      -2.52008418      -2.27123325      -0.21965436       0.00000000
Si      -0.45854721      -3.36391432      -0.75128805       0.00000000
Si      -1.30802184      -1.10594439      -3.18099948       0.00000000
Si       0.68048217       3.59473059      -0.76394190       0.00000000
Si      -0.39547233      -1.45691244       3.42135389       0.00000000
Si       1.85736951       2.03621742       2.53933230       0.00000000
