10
Lattice="16.28999089631971 0.0 0.0 0.0 16.28999089631971 0.0 0.0 0.0 34.385447050020396" Properties=species:S:1:pos:R:3:initial_magmoms:R:1 pbc="T T T"
Si      -1.35727303      -1.35627282       1.35678173       0.00000000
Si       1.35757602       1.35681039       1.35715997       0.00000000
Si       1.35742941      -1.35861858      -1.35695366       0.00000000
Si      -1.35871795       1.35799956      -1.35753821       0.00000000
Si      -2.71167341      -0.00540828       2.71294452       0.00000000
Si       2.71445157      -0.00055386       2.71328837       0.00000000
Si      -0.00154755      -2.71474479      -2.71308206       0.00000000
Si       2.71471221      -2.71461447       0.00003439       0.00000000
Si       0.00177561      -2.71262709       2.71696762       0.00000000
Si      -2.71427957       0.00047241      -2.71545466       0.00000000
