10
Lattice="16.28999089631971 0.0 0.0 0.0 16.28999089631971 0.0 0.0 0.0 34.385447050020396" Properties=species:S:1:pos:R:3:initial_magmoms:R:1 pbc="T T T"
Si       1.02062877      -1.59531228      -1.40980412       0.00000000
Si      -1.61441623       1.37873673      -1.09895950       0.00000000
Si      -0.67414114      -1.66008132       1.60274097       0.00000000
Si       2.06833641       1.20721932       0.48473192       0.00000000
Si       2.00781906       0.16234614      -2.61656206       0.00000000
Si      -1.81333342       2.65180023       0.83879906       0.00000000
Si       1.39668342      -1.72089189       2.63433934       0.00000000
Si       2.08205259       0.60059601       2.72769588       0.00000000
Si      -0.78483169      -2.56844430      -2.52389322       0.00000000
Si       3.10459218      -2.12382504       1.07478652       0.00000000
