10
Lattice="16.28999089631971 0.0 0.0 0.0 16.28999089631971 0.0 0.0 0.0 34.385447050020396" Properties=species:S:1:pos:R:3:initial_magmoms:R:1 pbc="T T T"
Si      -1.80546047      -0.97313202      -1.11408911       0.00000000
Si       0.98719029       1.75765842      -1.20675794       0.00000000
Si      -1.02062877       1.59531228       1.40980412       0.00000000
Si       1.84948515      -1.68319683      -0.07107476       0.00000000
Si       2.08396341      -0.52851276       2.48459064       0.00000000
Si      -0.33266298      -2.19605490      -2.49806974       0.00000000
Si      -1.69476992      -0.06476904       3.01254509       0.00000000
Si       2.42188317       0.52356060      -2.51065482       0.00000000
Si       1.04770764       2.80253160       1.89453603       0.00000000
Si       2.74486500       2.51737515       0.19699434       0.00000000
