10
Lattice="16.28999089631971 0.0 0.0 0.0 16.28999089631971 0.0 0.0 0.0 34.385447050020396" Properties=species:S:1:pos:R:3:initial_magmoms:R:1 pbc="T T T"
Si      -0.26893324       2.03848173      -1.07303286       0.00000000
Si       1.21086502       0.52284384       1.91207262       0.00000000
Si       1.33701478      -1.43979165      -1.29691663       0.00000000
Si      -2.07279891      -0.80138655       0.79127835       0.00000000
Si      -1.16334450       3.31198506       0.68863773       0.00000000
Si      -2.77745544      -2.22229809      -1.01358039       0.00000000
Si       1.70727019      -1.51837461       2.95745957       0.00000000
Si       2.44409947       2.54881485       1.45251087       0.00000000
Si       1.94306794      -3.39387489      -0.06406012       0.00000000
Si      -1.86078456      -2.19512637       2.74004026       0.00000000
