10
Lattice="16.28999089631971 0.0 0.0 0.0 16.28999089631971 0.0 0.0 0.0 34.385447050020396" Properties=species:S:1:pos:R:3:initial_magmoms:R:1 pbc="T T T"
Si      -2.21685723      -0.72244521      -0.51065856       0.00000000
Si       0.28365777       2.38832577      -0.21838210       0.00000000
Si       1.71043371      -1.04399352      -1.42187342       0.00000000
Si       0.38711556      -0.73085085       2.53314291       0.00000000
Si       2.61373050       2.24718921       0.41259121       0.00000000
Si       1.57485204      -3.16166094      -0.03558896       0.00000000
Si       3.61442520       0.30406914      -0.77274458       0.00000000
Si      -3.05677682       0.95545737      -2.12605338       0.00000000
Si      -2.32335799      -2.74422969      -1.69640698       0.00000000
Si      -1.29388049       3.60245205       1.48902823       0.00000000
