10
Lattice="16.28999089631971 0.0 0.0 0.0 16.28999089631971 0.0 0.0 0.0 34.385447050020396" Properties=species:S:1:pos:R:3:initial_magmoms:R:1 pbc="T T T"
Si      -1.34695494      -1.35356868      -1.38030139       0.00000000
Si       1.37000529       1.35898072      -1.37201449       0.00000000
Si       1.21222035      -1.51762527       1.41764400       0.00000000
Si      -1.44933759       1.37503937       1.34821975       0.00000000
Si       2.46259188       0.02731833       2.68825575       0.00000000
Si      -2.72346809      -0.13061322       2.57388969       0.00000000
Si      -2.70067023      -2.71860552      -0.03833979       0.00000000
Si       2.71948518      -2.70920619      -0.00869952       0.00000000
Si       2.71911051       2.72398189       0.02059689       0.00000000
Si      -2.70787367      -0.00017919      -2.73642979       0.00000000
