10
Lattice="16.290000149 0.0 0.0 0.0 16.290000149 0.0 0.0 0.0 29.1751946751" Properties=species:S:1:pos:R:3:initial_magmoms:R:1 pbc="T T T"
Si      -1.35858601       1.37114560       1.26442376       0.00000000
Si      -1.41693679      -1.31015584      -1.31445922       0.00000000
Si       1.34099281       1.44881632      -1.25225771       0.00000000
Si       1.29166669      -1.30613221       1.46027684       0.00000000
Si      -2.77250916       0.04608441       2.50547819       0.00000000
Si      -0.03557736      -2.65593791      -2.63329472       0.00000000
Si       2.68630247       0.08462655      -2.60292334       0.00000000
Si       2.68338656      -2.64505619       0.12816663       0.00000000
Si      -0.04272867       2.79155217      -2.60239819       0.00000000
Si      -2.76695427       0.08395866      -2.63005627       0.00000000
