10
Lattice="16.290000149 0.0 0.0 0.0 16.290000149 0.0 0.0 0.0 29.1751946751" Properties=species:S:1:pos:R:3:initial_magmoms:R:1 pbc="T T T"
H        0.45025560       1.28296783      -0.66583629       0.00000000
Si      -0.81212167       0.98805367       1.94166756       0.00000000
Si      -1.87967054      -0.70908742      -1.27192179       0.00000000
Si       2.00885024      -1.36875097      -0.07795612       0.00000000
H        0.97287139      -0.25790328      -2.46930095       0.00000000
H       -0.65378287      -2.66997989      -1.04540558       0.00000000
Si       3.16903219       0.68879008      -0.66884134       0.00000000
Si      -2.31995666       2.29723211       0.65238653       0.00000000
Si       0.78693733      -2.96264604      -1.48764318       0.00000000
Si       2.00129168       0.85313989      -2.68400121       0.00000000
