10
Lattice="16.290000149 0.0 0.0 0.0 16.290000149 0.0 0.0 0.0 29.1751946751" Properties=species:S:1:pos:R:3:initial_magmoms:R:1 pbc="T T T"
Si      -0.43958565       0.24658173      -2.28292135       0.00000000
Si       0.80962930       1.85958497       1.18047768       0.00000000
Si      -1.87383872      -0.80241283       1.19527534       0.00000000
Si       1.63307251      -1.73498276       0.08416139       0.00000000
Si       2.18566190       0.59567644       2.59653077       0.00000000
Si      -0.67034980      -2.19960614       2.63560510       0.00000000
Si      -2.15736617       1.87753655      -2.17721962       0.00000000
Si      -0.48858597      -2.04779963      -2.94913692       0.00000000
Si       1.71515783      -2.42844806      -2.14471845       0.00000000
Si       0.64459531      -3.52296177       1.23508198       0.00000000
