10
Lattice="16.290000149 0.0 0.0 0.0 16.290000149 0.0 0.0 0.0 29.1751946751" Properties=species:S:1:pos:R:3:initial_magmoms:R:1 pbc="T T T"
H       -0.17824518       1.38777932       0.61008250       0.00000000
Si       0.83512315      -1.24422858       1.71274731       0.00000000
Si       1.89569990       0.01524581      -1.33829535       0.00000000
Si      -1.90052174      -0.54891110      -1.28487557       0.00000000
Si       0.64236358       1.12181249      -2.94196828       0.00000000
Si      -2.62984133       1.64128430      -0.88456273       0.00000000
Si      -0.69051682       2.66890638      -1.78534686       0.00000000
Si       1.87545143       0.60983570       2.66327223       0.00000000
Si       2.33038226      -2.27364256      -1.03286024       0.00000000
Si      -0.99738784      -2.26637722       2.65411997       0.00000000
