10
Lattice="16.290000149 0.0 0.0 0.0 16.290000149 0.0 0.0 0.0 29.1751946751" Properties=species:S:1:pos:R:3:initial_magmoms:R:1 pbc="T T T"
Si       0.91316854       0.07025877      -1.21330882       0.00000000
H       -1.26073198      -1.76541248      -0.42727073       0.00000000
H        1.90772192       0.42101505       1.24242567       0.00000000
Si      -1.79734088      -2.02061162       0.95814257       0.00000000
Si       0.02977812       1.49392333      -2.80647868       0.00000000
Si       1.18796455       2.94247413       0.25245296       0.00000000
Si       1.25301052      -2.05153004      -2.14274300       0.00000000
Si       2.79793785       1.41336928      -0.82212781       0.00000000
Si      -2.64635939      -0.14501358       2.07248913       0.00000000
H       -2.86762647      -0.92132983      -1.59783789       0.00000000
