10
Lattice="16.290000149 0.0 0.0 0.0 16.290000149 0.0 0.0 0.0 29.1751946751" Properties=species:S:1:pos:R:3:initial_magmoms:R:1 pbc="T T T"
Si       1.37189494       1.34627077      -1.33607804       0.00000000
Si       1.35001747      -1.39411450       1.31559705       0.00000000
Si      -1.34304535       1.37828062       1.34243823       0.00000000
Si      -1.36523233      -1.35161389      -1.35016966       0.00000000
Si      -0.00316026       2.69374700      -2.67166010       0.00000000
Si      -2.72023454       0.00975771       2.64508150       0.00000000
Si       2.76695427      -0.08395866       2.63005627       0.00000000
Si       0.00467523      -2.73111626      -2.67005547       0.00000000
Si       2.72437220      -0.00922014      -2.69803448       0.00000000
Si       0.00201996      -2.75149506       2.67043474       0.00000000
