10
Lattice="16.290000149 0.0 0.0 0.0 16.290000149 0.0 0.0 0.0 29.1751946751" Properties=species:S:1:pos:R:3:initial_magmoms:R:1 pbc="T T T"
Si      -1.33325506      -1.34008546       1.32780687       0.00000000
Si       1.49810986      -1.23598584      -1.27892383       0.00000000
Si      -1.24985026       1.37010304      -1.41270377       0.00000000
Si       1.41918481       1.42895881       1.23572996       0.00000000
Si       0.65798569       2.16024950      -2.53354181       0.00000000
H       -0.55558675      -0.45804222      -3.33211357       0.00000000
Si       2.36301113       0.49205574      -2.66080401       0.00000000
Si      -2.66227472       0.08112420       2.61247822       0.00000000
Si       0.10160073      -2.68584635       2.58849621       0.00000000
Si      -2.69477327      -2.62248905      -0.08102827       0.00000000
