10
Lattice="16.290000149 0.0 0.0 0.0 16.290000149 0.0 0.0 0.0 29.1751946751" Properties=species:S:1:pos:R:3:initial_magmoms:R:1 pbc="T T T"
H       -1.14108845       0.96037696       0.29598235       0.00000000
H        1.52207408      -1.46241847      -0.62820029       0.00000000
Si       1.47950831       1.20101284      -1.39174431       0.00000000
Si       1.28974610       0.14683806       2.02782191       0.00000000
Si      -1.31457092      -1.69899815      -1.14040001       0.00000000
H       -2.28864565      -0.84714517       2.21716892       0.00000000
Si       2.12887659      -2.77227132      -0.18958041       0.00000000
Si       0.04751793       2.41311917      -2.77555297       0.00000000
Si      -2.60423182      -0.35463330      -2.64429377       0.00000000
Si       0.74621396       2.52778448       2.77613647       0.00000000
