10
Lattice="16.290000149 0.0 0.0 0.0 16.290000149 0.0 0.0 0.0 29.1751946751" Properties=species:S:1:pos:R:3:initial_magmoms:R:1 pbc="T T T"
H        1.27969354       0.03820005       0.82230286       0.00000000
Si      -1.36599796      -1.37983143       1.33450258       0.00000000
Si       0.59846203      -1.52159679      -1.75646342       0.00000000
Si      -0.79990580       2.26101944       0.22324859       0.00000000
Si       0.51310242       1.99106156      -1.68924377       0.00000000
Si       0.47516301      -2.55484217       2.26557057       0.00000000
Si       2.72598491       1.91778914      -0.88940581       0.00000000
H       -3.06528933       0.99707833      -1.49989676       0.00000000
Si       3.58715577      -0.15931620      -0.09738680       0.00000000
Si       2.66906765      -2.24204159      -0.91327112       0.00000000
