10
Lattice="16.290000149 0.0 0.0 0.0 16.290000149 0.0 0.0 0.0 29.1751946751" Properties=species:S:1:pos:R:3:initial_magmoms:R:1 pbc="T T T"
H        0.72125605       0.08110791       1.32367858       0.00000000
H       -1.39274614       0.84093868       1.63109761       0.00000000
Si       1.60770898      -0.79021162      -1.52206991       0.00000000
Si      -1.87089023      -1.46505745      -0.16157223       0.00000000
Si      -0.33762654       1.95038543      -1.37301384       0.00000000
H        1.86764852       1.71636329       0.20393461       0.00000000
H        2.51955803       1.29518533       0.24229999       0.00000000
Si      -0.79099354       0.93173914       3.03071922       0.00000000
Si       0.12499317      -1.80284690      -2.99527136       0.00000000
Si      -0.99569368      -3.24632010      -1.44542667       0.00000000
