10
Lattice="16.290000149 0.0 0.0 0.0 16.290000149 0.0 0.0 0.0 29.1751946751" Properties=species:S:1:pos:R:3:initial_magmoms:R:1 pbc="T T T"
Si      -0.74078776       1.32105385      -1.78981067       0.00000000
Si      -1.51883074      -1.84571403      -0.06803655       0.00000000
Si       1.99497116      -0.88456493      -0.97929458       0.00000000
Si      -0.62597584       1.07500969       2.04427672       0.00000000
H        2.46120725       1.39155697       1.03283107       0.00000000
H        1.24698322      -0.76612685       2.77041814       0.00000000
Si      -2.49761540       2.29631987      -0.53081349       0.00000000
Si       0.80109334      -2.03078375      -2.67017217       0.00000000
Si      -0.62850079      -0.40228155      -3.60013150       0.00000000
Si       2.56538180      -2.62326017       0.54295037       0.00000000
