10
Lattice="16.290000149 0.0 0.0 0.0 16.290000149 0.0 0.0 0.0 29.1751946751" Properties=species:S:1:pos:R:3:initial_magmoms:R:1 pbc="T T T"
Si       1.32886556       1.34197885      -1.35043224       0.00000000
Si      -1.27422010      -1.47013993      -1.28884340       0.00000000
Si      -1.29078703       1.41515402       1.34693121       0.00000000
Si       1.18729666      -1.48237372       1.41315890       0.00000000
H       -1.93196144      -2.28952694      -0.21096583       0.00000000
Si      -2.58320306      -0.02151909       2.63058143       0.00000000
Si      -0.13654278       2.63132698      -2.63221524       0.00000000
Si       2.56548117       2.70572178       0.08627105       0.00000000
Si       2.69329740      -0.00351864      -2.71434341       0.00000000
Si       2.31863717      -3.05815431       0.14762648       0.00000000
