10
Lattice="16.290000149 0.0 0.0 0.0 16.290000149 0.0 0.0 0.0 29.1751946751" Properties=species:S:1:pos:R:3:initial_magmoms:R:1 pbc="T T T"
Si      -1.32295978      -1.25719428       1.40831582       0.00000000
Si       1.23706261       1.30476825       1.48110793       0.00000000
Si       1.33586146      -1.40844693      -1.34030844       0.00000000
Si      -1.46391715       1.33206052      -1.29234442       0.00000000
Si      -2.53708607      -2.49248128      -0.15550379       0.00000000
Si       2.38400894       2.72678589      -0.03556456       0.00000000
Si       2.67612122      -0.03010115      -2.65400911       0.00000000
Si      -0.15695415       2.67543981      -2.71635650       0.00000000
Si      -0.03733668      -2.72614505      -2.74363531       0.00000000
Si       3.13862691       0.22191818       2.26093171       0.00000000
