10
Lattice="16.290000149 0.0 0.0 0.0 16.290000149 0.0 0.0 0.0 29.1751946751" Properties=species:S:1:pos:R:3:initial_magmoms:R:1 pbc="T T T"
Si       0.14913495      -0.79493572      -1.27711497       0.00000000
H       -1.40981806       2.02800728      -0.44045791       0.00000000
Si       0.91580752      -0.15863202       2.53937977       0.00000000
H       -1.29715642      -2.67452480       0.43459370       0.00000000
Si      -2.06374754      -0.72166330      -2.07695293       0.00000000
Si       1.01030581      -2.87204106      -0.48509596       0.00000000
Si      -0.80197300       1.47232279       2.64508150       0.00000000
Si       2.78541084       0.73814878       1.26427789       0.00000000
Si       0.86680720      -2.45301338       1.87316420       0.00000000
Si       1.22693023       0.37124910      -2.98476829       0.00000000
