10
Lattice="16.290000149 0.0 0.0 0.0 16.290000149 0.0 0.0 0.0 29.1751946751" Properties=species:S:1:pos:R:3:initial_magmoms:R:1 pbc="T T T"
Si       0.92877436      -1.04309758       1.83354428       0.00000000
Si      -0.77097313      -2.04517694      -0.87948624       0.00000000
Si      -1.29569032       1.50109093       1.32102364       0.00000000
Si       1.99163171       0.59813623      -1.17129654       0.00000000
H       -0.26202465       2.68035662      -1.44277173       0.00000000
Si      -0.15884379      -1.52943553      -3.06149905       0.00000000
Si       2.26165475      -2.59019147       0.67692287       0.00000000
Si      -1.01055016      -2.07071966       2.73432842       0.00000000
Si       1.99954865       0.71677630       2.89689260       0.00000000
Si       0.29813958       2.31392936       2.88256758       0.00000000
