10
Lattice="16.290000149 0.0 0.0 0.0 16.290000149 0.0 0.0 0.0 29.1751946751" Properties=species:S:1:pos:R:3:initial_magmoms:R:1 pbc="T T T"
Si      -1.36710568      -1.35022924       1.34960366       0.00000000
Si       1.30504078       1.29477808       1.47496947       0.00000000
Si      -1.37238364       1.41190318      -1.30267244       0.00000000
Si       1.36327753      -1.34820928      -1.38956492       0.00000000
Si       2.66041766       2.63528219       0.16022725       0.00000000
Si       2.71265969      -2.71041167      -0.01450299       0.00000000
Si      -0.01474245      -2.66924684       2.75593557       0.00000000
Si      -2.72981306       0.02393001       2.69816868       0.00000000
Si      -2.71060715      -2.71912682      -0.01379403       0.00000000
Si      -2.78523165       0.11652237      -2.64654172       0.00000000
