10
Lattice="16.290000149 0.0 0.0 0.0 16.290000149 0.0 0.0 0.0 29.1751946751" Properties=species:S:1:pos:R:3:initial_magmoms:R:1 pbc="T T T"
Si       0.62266897      -0.40058739       2.15000762       0.00000000
Si       1.82596241       0.82758088      -1.16630758       0.00000000
Si      -0.87845455      -1.88796215      -1.07105057       0.00000000
Si      -1.59192397       1.78325003       0.09187269       0.00000000
H        2.66339873       1.76270834      -0.35086089       0.00000000
Si      -2.26989749      -0.60155713      -2.43023537       0.00000000
Si       0.53660889       2.12481875      -2.59396656       0.00000000
Si      -1.50128641      -0.98802109       3.15089185       0.00000000
Si      -3.44505810       0.85136428      -1.01132895       0.00000000
Si      -0.54403713       3.54564885      -1.09494506       0.00000000
