10
Lattice="16.290000149 0.0 0.0 0.0 16.290000149 0.0 0.0 0.0 29.1751946751" Properties=species:S:1:pos:R:3:initial_magmoms:R:1 pbc="T T T"
Si      -0.11253132       2.30541947       0.23025064       0.00000000
Si       1.59816304       0.07239276      -1.79579158       0.00000000
Si       0.28364148      -0.88671358       2.24290144       0.00000000
Si      -2.12318975      -0.97021612      -0.68249533       0.00000000
H        1.08424612      -2.75315664       0.06158884       0.00000000
H        2.50593959      -1.84324610       0.61104528       0.00000000
Si      -1.85645729       1.98643194       1.72606287       0.00000000
Si      -1.90975817      -0.15954426       2.70672869       0.00000000
Si       3.16368093      -1.02385909      -0.46683229       0.00000000
Si      -1.04254372      -2.39104622      -2.18151683       0.00000000
