10
Lattice="16.290000149 0.0 0.0 0.0 16.290000149 0.0 0.0 0.0 29.1751946751" Properties=species:S:1:pos:R:3:initial_magmoms:R:1 pbc="T T T"
Si      -1.34894722       1.33367860      -1.37581466       0.00000000
Si       1.31253418       1.46253250       1.28394197       0.00000000
Si      -1.40620005      -1.29257730       1.39483688       0.00000000
Si       1.42141654      -1.34800566      -1.34065855       0.00000000
H        2.21592872       0.55729720       2.08946909       0.00000000
H        0.20836539       0.22392234       3.51313107       0.00000000
Si      -2.64281567      -2.65632024      -0.04186640       0.00000000
Si      -0.03562623      -2.74523970       2.55819777       0.00000000
Si      -2.62273303       2.68923467       0.05038556       0.00000000
Si       0.07921827      -2.66987205      -2.76011929       0.00000000
