10
Lattice="16.290000149 0.0 0.0 0.0 16.290000149 0.0 0.0 0.0 29.1751946751" Properties=species:S:1:pos:R:3:initial_magmoms:R:1 pbc="T T T"
Si       1.11799900       1.25170732       1.55346242       0.00000000
Si      -1.23944095       1.47807316      -1.30634852       0.00000000
Si       1.50674193      -1.22572477      -1.29254865       0.00000000
Si      -1.27979128      -1.28497150       1.48452143       0.00000000
H        2.10970163       2.15107823       0.65699621       0.00000000
Si       0.11168424      -2.59331915      -2.60549076       0.00000000
Si      -2.61690707       0.12031794      -2.64289336       0.00000000
Si      -2.66804138      -2.62534529       0.14739308       0.00000000
Si      -2.47485827       2.83972170       0.11699253       0.00000000
Si       2.87161752      -2.45228033       0.16288511       0.00000000
