10
Lattice="16.290000149 0.0 0.0 0.0 16.290000149 0.0 0.0 0.0 29.1751946751" Properties=species:S:1:pos:R:3:initial_magmoms:R:1 pbc="T T T"
Si       1.37104786       1.38333052       1.31040387       0.00000000
Si       1.37010304      -1.34002356      -1.36534076       0.00000000
Si      -1.32453991       1.36616086      -1.39043143       0.00000000
Si      -1.36347301      -1.35920340       1.37884888       0.00000000
Si      -2.66971925      -2.67015908      -0.06975789       0.00000000
Si       2.67579542       0.00483813       2.68627687       0.00000000
Si      -2.68501556       2.71806797      -0.03807363       0.00000000
Si       2.70146846      -2.70526403       0.00819823       0.00000000
Si      -2.68837130       0.03600090       2.74039686       0.00000000
Si       0.04678488       2.75198376       2.68315513       0.00000000
