10
Lattice="16.290000149 0.0 0.0 0.0 16.290000149 0.0 0.0 0.0 29.1751946751" Properties=species:S:1:pos:R:3:initial_magmoms:R:1 pbc="T T T"
Si      -1.37704258      -1.35550720       1.32925104       0.00000000
Si      -1.38385180       1.35837913      -1.32076106       0.00000000
Si       1.34869798       1.36747547       1.35501274       0.00000000
Si       1.34928442      -1.37919286      -1.34663946       0.00000000
Si       0.00939933      -2.69465924       2.66745887       0.00000000
Si      -0.03574026       2.73165384      -2.65675158       0.00000000
Si      -2.74106946      -0.01487277      -2.65567210       0.00000000
Si      -2.69540858       0.01596420       2.71116332       0.00000000
Si       2.72813519      -0.03531672      -2.68073359       0.00000000
Si       2.72639216       0.02160054       2.68945697       0.00000000
