10
Lattice="16.290000149 0.0 0.0 0.0 16.290000149 0.0 0.0 0.0 29.1751946751" Properties=species:S:1:pos:R:3:initial_magmoms:R:1 pbc="T T T"
Si       1.29966508       1.48454029      -1.27270222       0.00000000
Si       1.37428957      -1.35110890       1.36004546       0.00000000
Si      -1.38399841       1.37184607       1.35020175       0.00000000
Si      -1.17343387      -1.46807110      -1.44901814       0.00000000
Si       2.60631857       0.05839965      -2.57281746       0.00000000
Si      -2.52949168      -0.06030558      -2.76277715       0.00000000
Si      -2.66095686      -2.66758526      -0.01439796       0.00000000
Si       0.01850544      -2.66523950       2.75854091       0.00000000
Si       2.71779104       0.01778868       2.72344315       0.00000000
Si      -0.02199150       2.73903321       2.71387369       0.00000000
