10
Lattice="16.290000149 0.0 0.0 0.0 16.290000149 0.0 0.0 0.0 29.1751946751" Properties=species:S:1:pos:R:3:initial_magmoms:R:1 pbc="T T T"
Si       1.27979128       1.28497150      -1.48452143       0.00000000
Si      -1.38825010      -1.34037379      -1.33712835       0.00000000
Si       1.33962445      -1.37235106       1.35702583       0.00000000
Si      -1.29717271       1.12242988       1.62004021       0.00000000
H       -2.47353878       1.64597419       0.81381288       0.00000000
Si       2.39779028       2.53667882       0.06894098       0.00000000
Si      -1.97561864      -0.73994068       3.03742952       0.00000000
Si      -0.29905182      -2.41992839       2.78815665       0.00000000
Si       2.76121856       0.05479956       2.54279327       0.00000000
Si       0.03534930      -2.65466729      -2.68954450       0.00000000
