10
Lattice="16.290000149 0.0 0.0 0.0 16.290000149 0.0 0.0 0.0 29.1751946751" Properties=species:S:1:pos:R:3:initial_magmoms:R:1 pbc="T T T"
Si      -0.62266897       0.40058739      -2.15000762       0.00000000
Si       1.47944152      -1.80597458       0.11856799       0.00000000
Si       0.96765859       1.99943462       0.87866934       0.00000000
Si      -2.12395538      -0.58743370       1.00088423       0.00000000
H        0.08131968      -0.82145584       2.57783268       0.00000000
H        0.73322920      -1.24263379       2.61619806       0.00000000
H        2.27625059       1.53725473       1.48927699       0.00000000
H        2.84169279       1.41387427      -0.84794786       0.00000000
Si      -2.34685145       1.54595359       1.91470968       0.00000000
Si      -0.17861985      -3.32803074       0.85182816       0.00000000
