10
Lattice="16.290000149 0.0 0.0 0.0 16.290000149 0.0 0.0 0.0 29.1751946751" Properties=species:S:1:pos:R:3:initial_magmoms:R:1 pbc="T T T"
Si       1.81232768       1.32392578       0.60337220       0.00000000
Si      -0.73055764      -0.34679781       2.26046491       0.00000000
Si      -1.22030020       1.86894031      -0.95303691       0.00000000
Si       1.60997329      -1.52910485      -1.07458077       0.00000000
H        0.71975737      -2.52145908       0.98997271       0.00000000
H       -1.18796455      -2.94247413      -0.25245296       0.00000000
Si      -0.27479601      -2.87221536      -1.46576178       0.00000000
Si       0.47944728       2.87101967       1.75999362       0.00000000
Si      -1.45987723       1.84339759       2.66077775       0.00000000
Si      -1.15818643      -1.44855080      -3.05893164       0.00000000
