10
Lattice="16.290000149 0.0 0.0 0.0 16.290000149 0.0 0.0 0.0 29.1751946751" Properties=species:S:1:pos:R:3:initial_magmoms:R:1 pbc="T T T"
Si       1.39968568       1.41692376       1.25861790       0.00000000
Si      -1.25846767       1.39164005      -1.43518618       0.00000000
Si       1.42729723      -1.28324476      -1.41304220       0.00000000
Si      -1.30350952      -1.58829130       1.27303044       0.00000000
Si      -2.53029314      -2.72666909      -0.35374924       0.00000000
Si       0.26200836      -2.68454315       2.60198974       0.00000000
Si      -2.58336596       2.78684436      -0.07363819       0.00000000
Si       2.86509402       0.12757562       2.54040090       0.00000000
Si      -2.56471391       0.08068437      -2.88379294       0.00000000
Si       2.86197540      -2.64152126      -0.12804993       0.00000000
