10
Lattice="10.86 0.0 0.0 0.0 10.86 0.0 0.0 0.0 10.86" Properties=species:S:1:pos:R:3:initial_magmoms:R:1 pbc="T T T"
Si      -1.43542050      -1.20248436       1.31530890       0.00000000
Si       1.27957950       1.51251564       1.31530890       0.00000000
Si      -1.43542050       1.51251564      -1.39969110       0.00000000
Si       1.09908630      -1.37848152      -1.81547706       0.00000000
Si       2.59367208       0.15247440       2.59118514       0.00000000
Si       0.00512592      -2.42298546       2.78064870       0.00000000
Si      -2.79292050      -2.55998436      -0.04219110       0.00000000
Si       2.33835348       0.10984890      -2.99808762       0.00000000
Si      -2.79292050       0.15501564       2.67280890       0.00000000
Si       2.63707950       2.87001564      -0.04219110       0.00000000
