10
Lattice="10.86 0.0 0.0 0.0 10.86 0.0 0.0 0.0 10.86" Properties=species:S:1:pos:R:3:initial_magmoms:R:1 pbc="T T T"
Si      -1.34561916       1.27334586      -1.38676770       0.00000000
Si      -1.34561916      -1.44165414       1.32823230       0.00000000
Si       1.36938084      -1.44165414      -1.38676770       0.00000000
Si      -2.91153342       2.37086832      -0.29371956       0.00000000
Si       0.01188084       2.63084586      -2.74426770       0.00000000
Si      -2.70311916      -0.08415414      -2.74426770       0.00000000
Si       2.72688084      -0.08415414      -2.74426770       0.00000000
Si       0.01188084      -2.79915414       2.68573230       0.00000000
Si      -2.70311916      -2.79915414      -0.02926770       0.00000000
Si       2.72688084      -2.79915414      -0.02926770       0.00000000
