10
Lattice="16.28999089631971 0.0 0.0 0.0 16.28999089631971 0.0 0.0 0.0 34.35334932831803" Properties=species:S:1:pos:R:3:initial_magmoms:R:1 pbc="T T T"
Si      -1.46511739       1.13559219       1.50871063       0.00000000
Si      -1.84916328      -0.84160004      -1.27925215       0.00000000
Si       1.22538593      -1.56396122       1.46261528       0.00000000
Si       1.55882594       1.39027005      -1.57929447       0.00000000
Si      -2.74444539       2.48815089       0.14704616       0.00000000
Si       2.78442038       2.56104864       0.11796260       0.00000000
Si      -0.89604774      -0.43183976      -3.66158955       0.00000000
Si      -0.14081891       2.49367320       2.85773306       0.00000000
Si       2.57493098      -0.22018378       2.85216781       0.00000000
Si      -2.73968871      -2.79843371       0.03362851       0.00000000
