10
Lattice="16.28999089631971 0.0 0.0 0.0 16.28999089631971 0.0 0.0 0.0 34.35334932831803" Properties=species:S:1:pos:R:3:initial_magmoms:R:1 pbc="T T T"
Si       1.84413014       1.28178517       0.51049106       0.00000000
Si       0.81944190      -2.06058793      -0.84564252       0.00000000
Si      -1.50746310       1.39778626      -1.25066873       0.00000000
Si       0.96091077       0.25675809       2.58969433       0.00000000
Si      -0.66527010      -3.06779863       0.72076803       0.00000000
Si      -0.37255509      -1.81540714       2.77073659       0.00000000
Si       0.63126959      -1.31833408      -3.21722732       0.00000000
Si      -1.04541354       0.52018205      -3.41630509       0.00000000
Si      -3.55226535       1.02333943      -0.15915916       0.00000000
Si      -3.78122130      -1.06878757       0.91548292       0.00000000
