10
Lattice="16.28999089631971 0.0 0.0 0.0 16.28999089631971 0.0 0.0 0.0 34.35334932831803" Properties=species:S:1:pos:R:3:initial_magmoms:R:1 pbc="T T T"
Si       1.34682462       1.35622395      -1.35740122       0.00000000
Si       1.35677781      -1.35812988       1.35719853       0.00000000
Si      -1.35928647       1.35490446       1.35826348       0.00000000
Si      -1.34630334      -1.38013767      -1.35516481       0.00000000
Si      -2.50848081       0.06374277      -2.73746878       0.00000000
Si       2.59828758       0.00970884      -2.81685942       0.00000000
Si      -2.71319724       2.70822879       0.00034353       0.00000000
Si       2.71461447       2.71112841      -0.00267956       0.00000000
Si      -0.00143352       2.71277370       2.71480930       0.00000000
Si       2.71347417      -0.00131949       2.71436271       0.00000000
