10
Lattice="16.28999089631971 0.0 0.0 0.0 16.28999089631971 0.0 0.0 0.0 34.35334932831803" Properties=species:S:1:pos:R:3:initial_magmoms:R:1 pbc="T T T"
Si      -1.16217747       1.44388044      -1.38230397       0.00000000
Si      -1.37166687      -1.33735198       1.35190124       0.00000000
Si       1.34630334       1.38013767       1.35516481       0.00000000
Si       1.40064678      -1.31515034      -1.42532470       0.00000000
Si      -2.72121192      -2.68112942      -0.03765129       0.00000000
Si      -0.01234782      -2.69364813       2.71191675       0.00000000
Si       2.71904535      -2.69245748      -0.01420512       0.00000000
Si       2.70308115       0.02200779       2.71236334       0.00000000
Si       2.69312796       2.73636162      -0.00223640       0.00000000
Si      -2.72692971       0.02274084       2.71270688       0.00000000
