10
Lattice="16.28999089631971 0.0 0.0 0.0 16.28999089631971 0.0 0.0 0.0 34.35334932831803" Properties=species:S:1:pos:R:3:initial_magmoms:R:1 pbc="T T T"
Si       1.35853713       1.35612132      -1.35778254       0.00000000
Si      -1.35710361      -1.35799744      -1.35764512       0.00000000
Si       1.35796698      -1.35779492       1.35840090       0.00000000
Si      -1.35863487       1.35672405       1.35936279       0.00000000
Si      -2.71367454       2.71364847       0.00010306       0.00000000
Si       0.00087966       2.71430007      -2.71450012       0.00000000
Si       2.71591767       2.71320864      -0.00106495       0.00000000
Si      -2.71465031      -0.00062717      -2.71511848       0.00000000
Si      -2.71358657      -2.71700488      -0.00034353       0.00000000
Si       0.00099369      -2.71623925      -2.71484365       0.00000000
