10
Lattice="16.28999089631971 0.0 0.0 0.0 16.28999089631971 0.0 0.0 0.0 34.35334932831803" Properties=species:S:1:pos:R:3:initial_magmoms:R:1 pbc="T T T"
Si      -1.83847311      -1.41922715       0.17523653       0.00000000
Si      -0.72304794       1.77029946       1.43535244       0.00000000
Si       1.66708602      -1.35393846       1.10088805       0.00000000
Si       0.57969594       0.28255005      -2.33400221       0.00000000
Si      -1.06127721      -3.22084970      -1.11088488       0.00000000
Si       1.20199023       3.01933521       1.70203764       0.00000000
Si      -2.02271301      -1.84910138       2.50394833       0.00000000
Si      -2.36672523       2.91305925       0.12394695       0.00000000
Si       2.03157477       3.15190323      -0.51176213       0.00000000
Si       1.78719219      -0.56056496       3.29101835       0.00000000
