10
Lattice="16.28999089631971 0.0 0.0 0.0 16.28999089631971 0.0 0.0 0.0 34.35334932831803" Properties=species:S:1:pos:R:3:initial_magmoms:R:1 pbc="T T T"
Si       1.45600020      -1.89358544      -0.22285030       0.00000000
Si       1.23584085       2.00207358       0.50485710       0.00000000
Si      -0.98950347       0.66863934      -2.10383464       0.00000000
Si      -1.46194605       0.09730017       2.01441282       0.00000000
Si      -2.00500578       2.65655691      -1.45806002       0.00000000
Si      -0.13365945       3.65897835      -0.46617521       0.00000000
Si       0.05789466      -3.66916679       0.45174680       0.00000000
Si       0.64298259       0.27728838      -3.76193433       0.00000000
Si       1.51780446       2.35458918       2.82972132       0.00000000
Si      -1.92888261      -3.43812572      -0.92070463       0.00000000
