10
Lattice="16.28999089631971 0.0 0.0 0.0 16.28999089631971 0.0 0.0 0.0 34.35334932831803" Properties=species:S:1:pos:R:3:initial_magmoms:R:1 pbc="T T T"
Si       1.01550231      -1.98791757      -0.64577462       0.00000000
Si       1.87134633       1.00242144       0.99188481       0.00000000
Si      -1.09439478       1.47602061      -1.48310363       0.00000000
Si      -1.74620655      -0.81120942       1.37324155       0.00000000
Si       2.77830837       1.64872719      -1.10676247       0.00000000
Si      -1.01063160       3.42130725      -0.12717617       0.00000000
Si       2.00500578      -2.65655691       1.45806002       0.00000000
Si      -0.69462189      -2.99180511      -1.96150864       0.00000000
Si      -3.45359403       0.75401523       1.03331497       0.00000000
Si      -0.90596835      -0.51624639       3.54969922       0.00000000
