10
Lattice="16.28999089631971 0.0 0.0 0.0 16.28999089631971 0.0 0.0 0.0 34.35334932831803" Properties=species:S:1:pos:R:3:initial_magmoms:R:1 pbc="T T T"
Si       1.29171555       1.38303729       1.34677370       0.00000000
Si      -1.34195391      -1.38605094       1.34860473       0.00000000
Si       0.99181665      -1.35400851      -1.78046638       0.00000000
Si      -1.97973999       1.52383176      -0.11649227       0.00000000
Si      -2.83701753      -0.40112496      -1.40762928       0.00000000
Si      -0.61080984       2.83470435      -1.58066719       0.00000000
Si       2.40982857      -2.63783970      -0.25813121       0.00000000
Si       1.92254580       2.29726467      -2.05622087       0.00000000
Si      -2.56754835      -2.55682953      -0.34865234       0.00000000
Si       2.51335152      -0.09356976       2.72867230       0.00000000
