10
Lattice="16.28999089631971 0.0 0.0 0.0 16.28999089631971 0.0 0.0 0.0 34.35334932831803" Properties=species:S:1:pos:R:3:initial_magmoms:R:1 pbc="T T T"
Si       0.47680830       1.74672783      -1.46297255       0.00000000
Si       1.12668156      -0.05180220       2.14338846       0.00000000
Si       0.61032114      -2.18804022      -0.84371873       0.00000000
Si      -2.53335564       0.53743968       0.47555368       0.00000000
Si      -1.42086267       0.92191626      -2.66544351       0.00000000
Si      -0.63083025      -0.91422738       3.40299457       0.00000000
Si      -1.92254580      -2.29726467       2.05622087       0.00000000
Si      -0.93072915      -3.65127318       0.27575449       0.00000000
Si      -3.42625941       0.01729998      -1.69489214       0.00000000
Si       3.06146115      -2.29519584      -0.16630466       0.00000000
