10
Lattice="16.28999089631971 0.0 0.0 0.0 16.28999089631971 0.0 0.0 0.0 34.35334932831803" Properties=species:S:1:pos:R:3:initial_magmoms:R:1 pbc="T T T"
Si       1.57951098      -1.11498534       1.37253731       0.00000000
Si      -1.14526845       1.59275475       1.38099511       0.00000000
Si       1.13751441       1.81910430      -1.20916334       0.00000000
Si      -1.58309478      -1.62867420      -1.57438538       0.00000000
Si       1.17507915       0.37719495      -3.46845835       0.00000000
Si       0.22121820      -2.46457926       2.74505057       0.00000000
Si      -2.49385239       0.25438464       2.74707742       0.00000000
Si       3.02208822      -2.36682297      -0.08834656       0.00000000
Si      -2.35111941       3.04474761      -0.06367053       0.00000000
Si      -0.38978712       3.75043041      -1.20611551       0.00000000
