10
Lattice="16.28999089631971 0.0 0.0 0.0 16.28999089631971 0.0 0.0 0.0 34.35334932831803" Properties=species:S:1:pos:R:3:initial_magmoms:R:1 pbc="T T T"
Si       1.40237352      -0.04342914      -1.88469450       0.00000000
Si       0.79711857      -1.07800704       1.94680539       0.00000000
Si      -2.10807261      -0.83481363      -0.71149262       0.00000000
Si      -0.33112683       2.31099714       0.48544745       0.00000000
Si      -1.84410945       0.15130152      -2.82577068       0.00000000
Si      -2.64670146       2.04819057       1.20515052       0.00000000
Si       3.05406549      -1.57089357      -1.30566848       0.00000000
Si       1.87968681       2.22853716      -2.25351227       0.00000000
Si      -3.54573027      -0.12657330       1.03520441       0.00000000
Si      -0.16368192       3.30752160      -1.67503590       0.00000000
