10
Lattice="16.28999089631971 0.0 0.0 0.0 16.28999089631971 0.0 0.0 0.0 34.35334932831803" Properties=species:S:1:pos:R:3:initial_magmoms:R:1 pbc="T T T"
Si       1.65169197      -1.52746443       0.57902603       0.00000000
Si      -1.40237352       0.04342914       1.88469450       0.00000000
Si       0.47731329       2.27196630      -0.36881776       0.00000000
Si      -1.09411785      -0.28619901      -2.12104568       0.00000000
Si      -3.24648297       0.19473066      -0.94107618       0.00000000
Si       2.88259695      -1.64709819      -1.40522454       0.00000000
Si       0.53442603      -3.58427241       0.24511128       0.00000000
Si       1.34394129      -1.17126729      -3.17129686       0.00000000
Si      -1.56605544       3.35095074       0.20965861       0.00000000
Si      -1.73350035       2.35442628       2.37014195       0.00000000
