10
Lattice="16.28999089631971 0.0 0.0 0.0 16.28999089631971 0.0 0.0 0.0 34.35334932831803" Properties=species:S:1:pos:R:3:initial_magmoms:R:1 pbc="T T T"
Si      -1.34858394      -1.33837011       1.36608231       0.00000000
Si       1.36663326       1.37244879       1.36189120       0.00000000
Si      -1.20585096       1.45199286      -1.44466564       0.00000000
Si       1.14526845      -1.59275475      -1.38099511       0.00000000
Si       0.75548133       2.15767566      -2.58711062       0.00000000
Si       2.28278286       0.22634955      -2.59015845       0.00000000
Si      -2.55852369      -0.01229895      -2.75781426       0.00000000
Si       0.00781920      -2.69825931       2.72255942       0.00000000
Si      -2.71963179      -2.70962973       0.00446937       0.00000000
Si      -2.70873378       0.01443294       2.72372744       0.00000000
