10
Lattice="16.28999089631971 0.0 0.0 0.0 16.28999089631971 0.0 0.0 0.0 34.35334932831803" Properties=species:S:1:pos:R:3:initial_magmoms:R:1 pbc="T T T"
Si       1.35179307       1.33424874       1.35915667       0.00000000
Si       1.35505107      -1.35540945      -1.35551522       0.00000000
Si      -1.35894438       1.35705474      -1.35441591       0.00000000
Si      -1.35899325      -1.34837217       1.39972800       0.00000000
Si      -0.10487502       2.61353502       2.68653648       0.00000000
Si       2.62581768      -0.12600315       2.72793229       0.00000000
Si       2.71178001      -2.71140534       0.00666455       0.00000000
Si       2.71311579       0.00086337      -2.71219845       0.00000000
Si      -0.00122175      -2.71394658      -2.71247327       0.00000000
Si      -0.00208512       2.71636961      -2.71185491       0.00000000
