10
Lattice="16.28999089631971 0.0 0.0 0.0 16.28999089631971 0.0 0.0 0.0 34.35334932831803" Properties=species:S:1:pos:R:3:initial_magmoms:R:1 pbc="T T T"
Si      -1.34820927      -1.34024346      -1.38296356       0.00000000
Si       1.36645407       1.37378952      -1.38358192       0.00000000
Si      -1.39589010       1.28036142       1.48519918       0.00000000
Si       1.31623200      -1.32396975       1.53738195       0.00000000
Si       1.94197977       0.67422681       2.88784722       0.00000000
Si       0.21181887       2.50648107       2.82937779       0.00000000
Si      -2.69117316      -2.69260668       0.00367581       0.00000000
Si       2.72430702      -2.69130348       0.01233286       0.00000000
Si      -2.69195345       2.73300981       0.00072142       0.00000000
Si       0.00788436      -2.69990460      -2.74194846       0.00000000
