10
Lattice="16.28999089631971 0.0 0.0 0.0 16.28999089631971 0.0 0.0 0.0 34.35334932831803" Properties=species:S:1:pos:R:3:initial_magmoms:R:1 pbc="T T T"
Si       1.35899325       1.34837217      -1.39972800       0.00000000
Si      -1.35861858      -1.36627488      -1.39677361       0.00000000
Si       1.17836973      -1.48732587       1.52350319       0.00000000
Si      -1.40807502       1.36733373       1.52504909       0.00000000
Si       2.71078632       2.68262091      -0.04057133       0.00000000
Si      -2.72430702       2.69130348      -0.01233286       0.00000000
Si       2.69571807      -2.72912886      -0.00632102       0.00000000
Si      -2.71002069      -2.72683197      -0.03225781       0.00000000
Si       0.00004887       2.70542691      -2.75414391       0.00000000
Si       2.71404432      -0.00703728      -2.75524322       0.00000000
