10
Lattice="16.28999089631971 0.0 0.0 0.0 16.28999089631971 0.0 0.0 0.0 34.35334932831803" Properties=species:S:1:pos:R:3:initial_magmoms:R:1 pbc="T T T"
Si      -1.31623200       1.32396975      -1.53738195       0.00000000
Si       1.40807502      -1.36733373      -1.52504909       0.00000000
Si       0.62574777       1.99819656       1.35046527       0.00000000
Si      -0.96912468      -2.01751650       1.72684078       0.00000000
Si      -2.52063315      -2.70117522      -0.08856298       0.00000000
Si       2.66219325       2.59457346      -0.23824061       0.00000000
Si      -2.71212210       2.60433117      -0.05218277       0.00000000
Si       2.58644475      -2.85465960      -0.00154590       0.00000000
Si      -2.66444127      -0.01627371      -2.92034551       0.00000000
Si       0.05022207       2.69775927      -2.92096387       0.00000000
