10
Lattice="16.28999089631971 0.0 0.0 0.0 16.28999089631971 0.0 0.0 0.0 34.35334932831803" Properties=species:S:1:pos:R:3:initial_magmoms:R:1 pbc="T T T"
Si      -0.40997043       2.32407801       0.40890815       0.00000000
Si       0.37602207      -1.80025677       1.60804683       0.00000000
Si      -2.26248552      -0.60312096      -0.73110839       0.00000000
Si       2.12128380       0.10961541      -1.78297418       0.00000000
Si      -1.77634305      -1.31932710       2.78801633       0.00000000
Si       3.61680354      -0.63263844      -0.17345016       0.00000000
Si      -1.98829224       2.80528461      -1.33820112       0.00000000
Si      -2.48173263       2.35805895       1.60952402       0.00000000
Si      -3.54421530       1.39243662      -0.26568895       0.00000000
Si      -2.06824356      -0.93004497      -3.20678389       0.00000000
