10
Lattice="16.28999089631971 0.0 0.0 0.0 16.28999089631971 0.0 0.0 0.0 34.35334932831803" Properties=species:S:1:pos:R:3:initial_magmoms:R:1 pbc="T T T"
Si       1.59413940      -0.50404518       1.68946431       0.00000000
Si      -2.03784642      -1.23652503       0.09625814       0.00000000
Si       1.81016109      -0.56032713      -1.46623612       0.00000000
Si      -0.88088175       2.25706095       0.28582003       0.00000000
Si       0.68149215       0.65270772      -3.08919231       0.00000000
Si      -2.07974430      -1.02073140       2.52390763       0.00000000
Si      -2.42088948       1.32167286       2.05295730       0.00000000
Si       2.88036522       1.52477658       1.38059317       0.00000000
Si       0.16685847      -1.29834558       3.43416884       0.00000000
Si      -3.58156827       0.19958508      -1.05200320       0.00000000
