10
Lattice="16.28999089631971 0.0 0.0 0.0 16.28999089631971 0.0 0.0 0.0 34.35334932831803" Properties=species:S:1:pos:R:3:initial_magmoms:R:1 pbc="T T T"
Si       1.42728093       0.79430040      -1.74470453       0.00000000
Si      -2.24660277       0.27761418      -0.91026121       0.00000000
Si      -0.03756474       1.44190935       2.25929501       0.00000000
Si       0.27865674      -2.77606035      -1.38962811       0.00000000
Si      -0.16685847       1.29834558      -3.43416884       0.00000000
Si      -1.17507915      -0.37719495       3.46845835       0.00000000
Si      -2.75817393      -2.00586915       1.89407297       0.00000000
Si      -2.58774795       2.62001844      -1.38121153       0.00000000
Si       3.27709188      -0.79519635      -2.06254189       0.00000000
Si      -2.20470489       0.06182055      -3.33791070       0.00000000
