10
Lattice="16.28999089631971 0.0 0.0 0.0 16.28999089631971 0.0 0.0 0.0 34.35334932831803" Properties=species:S:1:pos:R:3:initial_magmoms:R:1 pbc="T T T"
Si       1.34151408       1.35451091       1.36854545       0.00000000
Si      -1.37228589      -1.35954060       1.36507576       0.00000000
Si      -1.31839857       1.37730713      -1.41111958       0.00000000
Si       1.33779996      -1.45338729      -1.40448938       0.00000000
Si      -1.98343782      -0.57431373      -2.58392606       0.00000000
Si      -0.45613629      -2.50563984      -2.58697389       0.00000000
Si      -2.71904535       2.69245748       0.01420512       0.00000000
Si       2.69868285       2.71469333      -0.02474817       0.00000000
Si       2.69860140      -0.00019735       2.72715247       0.00000000
Si       2.70878265      -2.72223168       0.00932007       0.00000000
