10
Lattice="16.28999089631971 0.0 0.0 0.0 16.28999089631971 0.0 0.0 0.0 34.35334932831803" Properties=species:S:1:pos:R:3:initial_magmoms:R:1 pbc="T T T"
Si       1.35752715       1.35578665       1.35671758       0.00000000
Si      -1.35708732       1.35470825      -1.35860702       0.00000000
Si      -1.35703845      -1.35872424       1.35699241       0.00000000
Si       1.35935163      -1.35681831      -1.35884749       0.00000000
Si      -2.69860140       0.00019735      -2.72715247       0.00000000
Si      -0.00030951       2.71396214       2.71446577       0.00000000
Si       2.71518462      -0.00124338       2.71391611       0.00000000
Si      -2.71487511      -2.71424772      -0.00034353       0.00000000
Si      -2.71456560       2.71466261      -0.00058401       0.00000000
Si       2.71487511       2.71480922      -0.00116801       0.00000000
