10
Lattice="16.28999089631971 0.0 0.0 0.0 16.28999089631971 0.0 0.0 0.0 34.35334932831803" Properties=species:S:1:pos:R:3:initial_magmoms:R:1 pbc="T T T"
Si      -1.35614250      -1.35592906      -1.35661452       0.00000000
Si       1.35987291      -1.35293586       1.35912232       0.00000000
Si      -1.35426915       1.35985336       1.35788560       0.00000000
Si       1.35922131       1.35892483      -1.35647711       0.00000000
Si      -2.71277370       0.00116799      -2.71453447       0.00000000
Si       0.00249237      -2.71376154      -2.71395047       0.00000000
Si      -2.71300176      -2.71524393       0.00082448       0.00000000
Si      -2.71295289       2.71542571      -0.00041224       0.00000000
Si       0.00166158       2.71643569      -2.71436271       0.00000000
Si       2.71705797       0.00074934      -2.71422529       0.00000000
