10
Lattice="16.28999089631971 0.0 0.0 0.0 16.28999089631971 0.0 0.0 0.0 34.35334932831803" Properties=species:S:1:pos:R:3:initial_magmoms:R:1 pbc="T T T"
Si      -1.61935632       1.06945642      -1.34699558       0.00000000
Si       0.08338851       0.65176290       2.27000189       0.00000000
Si       2.32940484      -0.16241733      -0.41948898       0.00000000
Si      -0.80376489      -2.21062209       0.47002279       0.00000000
Si       2.75214663      -1.68654021       1.34627416       0.00000000
Si       1.28453166      -3.30298062       0.54855459       0.00000000
Si      -2.07633969       0.11144966       2.94240037       0.00000000
Si       1.81433133      -0.64691241       3.22286127       0.00000000
Si      -3.72954663       0.21956476      -0.76954981       0.00000000
Si      -1.17454158       0.70100105      -3.60885572       0.00000000
