10
Lattice="16.28999089631971 0.0 0.0 0.0 16.28999089631971 0.0 0.0 0.0 34.35334932831803" Properties=species:S:1:pos:R:3:initial_magmoms:R:1 pbc="T T T"
Si       1.42221474       1.23271154       1.36001551       0.00000000
Si       1.45756404       0.55102391      -1.74405181       0.00000000
Si      -2.41781067      -0.36110043       0.67466580       0.00000000
Si       1.96476948      -1.78599555      -1.44984957       0.00000000
Si      -1.79647749      -1.05371118      -2.54462271       0.00000000
Si      -0.39837195       0.72187017      -3.21921981       0.00000000
Si      -0.45960606       2.22298064       2.47516020       0.00000000
Si       3.11715666      -1.40050899       0.55164639       0.00000000
Si       2.30918895      -0.69050934       2.60048129       0.00000000
Si      -2.31360354      -1.23588225       2.86606894       0.00000000
