10
Lattice="16.28999089631971 0.0 0.0 0.0 16.28999089631971 0.0 0.0 0.0 34.35334932831803" Properties=species:S:1:pos:R:3:initial_magmoms:R:1 pbc="T T T"
Si       1.42066719       1.26335466      -1.36166932       0.00000000
Si      -1.32049998       1.36897902       1.38434456       0.00000000
Si       1.38867363      -1.36984239       1.36945581       0.00000000
Si      -1.89250704      -0.83601909      -1.21265948       0.00000000
Si       2.46109320      -0.53030466      -2.69224399       0.00000000
Si       0.02231730       2.31140439      -2.91629666       0.00000000
Si      -2.59483410       2.80883583      -0.08769384       0.00000000
Si      -2.68139916      -0.00586440       2.74515363       0.00000000
Si      -3.51331317       0.97826337      -1.25107273       0.00000000
Si       0.03235194       2.71041165       2.74948216       0.00000000
