10
Lattice="16.28999089631971 0.0 0.0 0.0 16.28999089631971 0.0 0.0 0.0 34.35334932831803" Properties=species:S:1:pos:R:3:initial_magmoms:R:1 pbc="T T T"
Si      -0.90521901      -1.87126488       1.14363326       0.00000000
Si       1.89250704       0.83601909       1.21265948       0.00000000
Si       0.31397346      -0.42911118      -2.34810637       0.00000000
Si      -1.62080613       1.81428246      -0.03841325       0.00000000
Si      -2.15668197      -0.52474977       2.60309146       0.00000000
Si       0.57200706       2.20499811       2.59700404       0.00000000
Si      -3.37831794       0.95185728       1.22119286       0.00000000
Si      -2.13716655      -0.32195556      -3.02552044       0.00000000
Si      -2.26020492      -3.06901971      -0.38371205       0.00000000
Si       1.87473465       1.14833097      -3.19436725       0.00000000
