10
Lattice="16.28999089631971 0.0 0.0 0.0 16.28999089631971 0.0 0.0 0.0 34.35334932831803" Properties=species:S:1:pos:R:3:initial_magmoms:R:1 pbc="T T T"
Si      -1.35695700       1.35436689      -1.35960327       0.00000000
Si       1.35703845       1.35672894       1.35743900       0.00000000
Si      -1.35809730      -1.35808101       1.35743900       0.00000000
Si       1.35702216      -1.35736425      -1.36083999       0.00000000
Si      -0.00035838       2.71396287       2.71501542       0.00000000
Si      -2.71728603       2.71202436       0.00010306       0.00000000
Si       2.71464705      -2.71474479      -0.00030918       0.00000000
Si      -2.71479366      -2.71489140       0.00027483       0.00000000
Si       2.71340901       2.71630863       0.00092754       0.00000000
Si      -2.71508688      -0.00099369       2.71474059       0.00000000
