10
Lattice="16.28999089631971 0.0 0.0 0.0 16.28999089631971 0.0 0.0 0.0 34.35334932831803" Properties=species:S:1:pos:R:3:initial_magmoms:R:1 pbc="T T T"
Si       0.91621476       1.80931401      -1.25802036       0.00000000
Si      -1.79709651      -1.00027116      -1.26276112       0.00000000
Si       1.76138883      -1.71502749       0.25497070       0.00000000
Si      -0.06654465       2.24608149       2.16883122       0.00000000
Si       2.21617305       0.35432379      -2.76524005       0.00000000
Si      -0.51543189      -2.38034367      -2.77125189       0.00000000
Si       3.54103875      -0.98653869      -1.28323573       0.00000000
Si       0.87485445      -3.66099831      -1.32253598       0.00000000
Si      -3.23131698       1.29738447       1.97889144       0.00000000
Si       1.78184907       3.57138702       0.37517314       0.00000000
