10
Lattice="16.28999089631971 0.0 0.0 0.0 16.28999089631971 0.0 0.0 0.0 34.35334932831803" Properties=species:S:1:pos:R:3:initial_magmoms:R:1 pbc="T T T"
Si       2.04009444       0.03606606      -1.02833373       0.00000000
Si       0.52202934      -1.47497805       1.74587254       0.00000000
Si      -1.63175301      -1.31931081      -1.06893942       0.00000000
Si      -0.56384577       2.24782452       0.47455743       0.00000000
Si      -1.67444910      -1.78826733       2.36127879       0.00000000
Si      -3.52010610       0.00923643      -0.12806936       0.00000000
Si      -2.91201669       0.31065030       2.12489326       0.00000000
Si      -2.10250143       2.72365542      -1.29151489       0.00000000
Si       1.89358218       1.53940500      -2.77874092       0.00000000
Si       3.64260690       0.24226488       0.88813764       0.00000000
