10
Lattice="16.28999089631971 0.0 0.0 0.0 16.28999089631971 0.0 0.0 0.0 34.35334932831803" Properties=species:S:1:pos:R:3:initial_magmoms:R:1 pbc="T T T"
Si      -0.60808941      -0.30141387      -2.25296261       0.00000000
Si      -1.99088235      -0.38178873       1.21026917       0.00000000
Si       1.11726594       2.05680798       0.33391474       0.00000000
Si       1.23756759      -2.09891763       0.23638553       0.00000000
Si      -1.39344660      -2.46084885      -1.76555702       0.00000000
Si      -2.22303114      -2.59341687       0.44824275       0.00000000
Si       2.34817092       1.93717422      -1.65033582       0.00000000
Si      -1.07253360       0.17661618       3.35622104       0.00000000
Si       2.91201669      -0.31065030      -2.12489326       0.00000000
Si      -0.53442603       3.58427241      -0.24511128       0.00000000
