10
Lattice="16.28999089631971 0.0 0.0 0.0 16.28999089631971 0.0 0.0 0.0 34.35334932831803" Properties=species:S:1:pos:R:3:initial_magmoms:R:1 pbc="T T T"
Si       1.35830907       1.35558864      -1.35737030       0.00000000
Si      -1.35733167       1.35741312       1.35709547       0.00000000
Si       1.35734796      -1.35785295       1.35754206       0.00000000
Si      -1.35957969      -1.35979146      -1.35737030       0.00000000
Si       2.71450044      -0.00117288      -2.71274810       0.00000000
Si      -2.71463076       0.00060273       2.71450012       0.00000000
Si       2.71463076       2.71505430      -0.00013741       0.00000000
Si       2.71474479      -2.71508688      -0.00003435       0.00000000
Si      -0.00138465      -2.71533123       2.71456883       0.00000000
Si      -0.00105885       2.71595025       2.71405353       0.00000000
