10
Lattice="16.28999089631971 0.0 0.0 0.0 16.28999089631971 0.0 0.0 0.0 34.35334932831803" Properties=species:S:1:pos:R:3:initial_magmoms:R:1 pbc="T T T"
Si       1.71577683       0.73686186      -1.64511411       0.00000000
Si      -0.86563431      -1.76207301      -1.63319349       0.00000000
Si      -1.99622547       1.65946230      -0.39712494       0.00000000
Si       0.46490031       1.88542089       2.05663311       0.00000000
Si      -1.84839372      -1.32530553       1.79365808       0.00000000
Si       1.49915241      -1.38813606       2.40136917       0.00000000
Si       3.19305177       1.93826565      -0.22209453       0.00000000
Si       0.44613423       2.18217582      -3.15487595       0.00000000
Si      -2.30633820      -0.52755165      -3.13419522       0.00000000
Si      -1.01724534       3.42394623      -1.79966992       0.00000000
