10
Lattice="16.28999089631971 0.0 0.0 0.0 16.28999089631971 0.0 0.0 0.0 34.35334932831803" Properties=species:S:1:pos:R:3:initial_magmoms:R:1 pbc="T T T"
Si      -1.35179307      -1.33424874      -1.35915667       0.00000000
Si      -1.45666809       1.27928628       1.32737981       0.00000000
Si       1.36213722       1.38511407      -1.35527474       0.00000000
Si       1.27402461      -1.46025189       1.36877562       0.00000000
Si       0.45794448       2.18561042       2.39707500       0.00000000
Si       1.99544355       0.38447658       2.75417826       0.00000000
Si      -2.71078632      -2.68262091       0.04057133       0.00000000
Si       0.00325800      -2.68965819      -2.71467189       0.00000000
Si      -2.71073745       0.02280600      -2.71357258       0.00000000
Si       2.71884987       0.02241504      -2.71388176       0.00000000
