10
Lattice="16.28999089631971 0.0 0.0 0.0 16.28999089631971 0.0 0.0 0.0 34.35334932831803" Properties=species:S:1:pos:R:3:initial_magmoms:R:1 pbc="T T T"
Si       1.12866894      -1.21303485       1.62295619       0.00000000
Si       1.39341402       0.00531054      -1.91111224       0.00000000
Si       0.12083922       2.32738229       0.56126533       0.00000000
Si      -2.04235875      -0.94910427      -0.87274733       0.00000000
Si      -0.68149215      -0.65270772       3.08919231       0.00000000
Si      -1.87491384       0.04742019      -3.03323067       0.00000000
Si      -1.41226155       3.22887089      -0.96055454       0.00000000
Si       2.28056742       2.86769553      -0.11113315       0.00000000
Si       0.16845489      -1.03156425      -3.61170705       0.00000000
Si      -1.71123192      -3.26010141      -1.35819478       0.00000000
