10
Lattice="16.28999089631971 0.0 0.0 0.0 16.28999089631971 0.0 0.0 0.0 34.35334932831803" Properties=species:S:1:pos:R:3:initial_magmoms:R:1 pbc="T T T"
Si       1.74426804      -1.49175675       0.21075792       0.00000000
Si      -0.80796771       0.70999965       2.04883490       0.00000000
Si      -1.15238718      -0.38548656      -2.00149596       0.00000000
Si      -1.69494192       2.63322053       0.80836911       0.00000000
Si      -1.65959262       1.95153290      -2.29569821       0.00000000
Si      -3.11715666       1.40050899      -0.55164639       0.00000000
Si      -2.43861300      -2.41430832      -1.69262482       0.00000000
Si       3.69131400      -1.15160526      -0.97869312       0.00000000
Si       0.65122533       2.03813054       3.42174120       0.00000000
Si       0.73379934      -4.01809140      -0.06564929       0.00000000
