10
Lattice="16.28999089631971 0.0 0.0 0.0 16.28999089631971 0.0 0.0 0.0 34.35334932831803" Properties=species:S:1:pos:R:3:initial_magmoms:R:1 pbc="T T T"
Si      -1.35764118      -1.35653346      -1.35761077       0.00000000
Si      -1.35736425       1.35742941       1.35761077       0.00000000
Si       1.35726054      -1.35765747       1.35771383       0.00000000
Si       1.35925389       1.35759231      -1.35754206       0.00000000
Si       2.71241110      -0.00218286      -2.71192362       0.00000000
Si      -0.00164529      -2.71412414       2.71439706       0.00000000
Si      -2.71394658      -0.00100998       2.71515283       0.00000000
Si       2.71442292      -2.71471547       0.00003435       0.00000000
Si       2.71483668       2.71476108       0.00030918       0.00000000
Si      -2.71524978       2.71494027       0.00013741       0.00000000
