10
Lattice="16.28999089631971 0.0 0.0 0.0 16.28999089631971 0.0 0.0 0.0 34.35334932831803" Properties=species:S:1:pos:R:3:initial_magmoms:R:1 pbc="T T T"
Si       1.35690813       1.35855342       1.35661452       0.00000000
Si       1.35736425      -1.35742941      -1.35761077       0.00000000
Si      -1.35658233      -1.35843939       1.35754206       0.00000000
Si      -1.35788553       1.35751086      -1.35747336       0.00000000
Si       0.00052128       2.71073745       2.71608038       0.00000000
Si      -0.00027693      -2.71396287      -2.71522154       0.00000000
Si       2.71493196       2.71456560      -0.00010306       0.00000000
Si       2.71462479      -2.71508688       0.00010306       0.00000000
Si      -2.71492398       0.00078192      -2.71491236       0.00000000
Si      -2.71528236       2.71474479       0.00010306       0.00000000
