10
Lattice="16.28999089631971 0.0 0.0 0.0 16.28999089631971 0.0 0.0 0.0 34.35334932831803" Properties=species:S:1:pos:R:3:initial_magmoms:R:1 pbc="T T T"
Si      -1.35661491       1.35433431      -1.35620228       0.00000000
Si       1.35842310       1.35638685       1.35692370       0.00000000
Si      -1.35637056      -1.35957969       1.35651146       0.00000000
Si       1.35835794      -1.36068741      -1.36204236       0.00000000
Si      -2.71280628       2.71109583      -0.00082448       0.00000000
Si       0.00127062       2.71295289       2.71391611       0.00000000
Si      -2.71376739      -0.00234576       2.71408788       0.00000000
Si      -2.71340901      -2.71630863      -0.00092754       0.00000000
Si       2.71644693      -0.00252495       2.71388176       0.00000000
Si      -2.70946683       0.01290168      -2.72133988       0.00000000
