10
Lattice="16.28999089631971 0.0 0.0 0.0 16.28999089631971 0.0 0.0 0.0 34.35334932831803" Properties=species:S:1:pos:R:3:initial_magmoms:R:1 pbc="T T T"
Si       0.24101055      -2.29731354      -0.25576083       0.00000000
Si       2.12307800       0.84274686      -0.46390789       0.00000000
Si      -0.52541766       0.92944224       2.12623304       0.00000000
Si      -1.60251246      -0.20619882      -1.91647137       0.00000000
Si       1.94665404       0.05639598      -2.67763896       0.00000000
Si      -2.07330975      -0.71842158       2.68134912       0.00000000
Si       1.30444083      -2.21605902      -2.36873347       0.00000000
Si      -1.01024064       3.15068148       1.52652628       0.00000000
Si      -3.12057756      -1.71724293       0.85773491       0.00000000
Si      -3.64260690      -0.24226488      -0.88813764       0.00000000
