10
Lattice="16.28999089631971 0.0 0.0 0.0 16.28999089631971 0.0 0.0 0.0 34.35334932831803" Properties=species:S:1:pos:R:3:initial_magmoms:R:1 pbc="T T T"
Si       1.54789209       1.64786382      -0.55511608       0.00000000
Si      -1.04726781      -0.99882135      -1.82361421       0.00000000
Si      -1.53385011       1.02387537       1.46104876       0.00000000
Si       1.36728486      -1.61244936       1.17574404       0.00000000
Si       2.07330975       0.71842158      -2.68134912       0.00000000
Si       0.65067147      -1.07976636       3.34299500       0.00000000
Si      -0.25987437       1.06922673       3.40781980       0.00000000
Si      -3.24374625      -1.31211063      -1.20820797       0.00000000
Si       0.30144645      -2.76587910      -2.65606504       0.00000000
Si       2.98085823       2.06182530       1.36987492       0.00000000
