10
Lattice="16.28999089631971 0.0 0.0 0.0 16.28999089631971 0.0 0.0 0.0 34.35334932831803" Properties=species:S:1:pos:R:3:initial_magmoms:R:1 pbc="T T T"
Si      -1.35715248       1.35656604       1.35699241       0.00000000
Si      -1.35842310      -1.35638685      -1.35692370       0.00000000
Si       1.35990331       1.35622395      -1.35668323       0.00000000
Si       1.35802383      -1.35891180       1.35695806       0.00000000
Si       2.71115352       0.00257382      -2.71267939       0.00000000
Si      -2.71503801      -0.00205254      -2.71312599       0.00000000
Si       2.71458256       2.71397916       0.00017177       0.00000000
Si       0.00000000      -2.71492398       2.71367564       0.00000000
Si      -0.00138465       2.71498914       2.71388176       0.00000000
Si      -2.71490769       2.71417464      -0.00051530       0.00000000
