10
Lattice="16.28999089631971 0.0 0.0 0.0 16.28999089631971 0.0 0.0 0.0 34.35334932831803" Properties=species:S:1:pos:R:3:initial_magmoms:R:1 pbc="T T T"
Si      -0.81608013      -2.15954901       0.44655944       0.00000000
Si       1.61329548      -0.84678678      -1.53020209       0.00000000
Si      -0.39081339       1.02522744       2.27007059       0.00000000
Si      -1.28337507       1.70569332      -1.37839456       0.00000000
Si       0.14562936      -2.04991731      -2.94576700       0.00000000
Si      -2.66458788       0.43575750       2.37251234       0.00000000
Si      -2.97727443      -1.62070839       1.24506914       0.00000000
Si       0.71840433      -2.86145253       2.23430874       0.00000000
Si      -2.76065001       0.50428953      -2.80141414       0.00000000
Si      -0.87830793      -3.67113069      -1.54006151       0.00000000
