10
Lattice="16.28999089631971 0.0 0.0 0.0 16.28999089631971 0.0 0.0 0.0 34.35334932831803" Properties=species:S:1:pos:R:3:initial_magmoms:R:1 pbc="T T T"
Si      -1.13858955      -0.87842196       1.98139924       0.00000000
Si       2.37421863       0.49260960      -0.37280276       0.00000000
Si      -0.37660851       2.37957804       0.49369226       0.00000000
Si      -2.53426299      -0.28474920      -2.05996539       0.00000000
Si       0.07170858       2.64362265      -2.11510255       0.00000000
Si      -0.60835005       0.65979387      -3.46553346       0.00000000
Si       0.66345912      -3.56539393       0.21924320       0.00000000
Si      -3.20486642       0.25477560       1.77033214       0.00000000
Si       3.35008737      -0.69467076       1.43665787       0.00000000
Si      -1.38495951      -3.18550950       1.43717317       0.00000000
