10
Lattice="16.28999089631971 0.0 0.0 0.0 16.28999089631971 0.0 0.0 0.0 34.35334932831803" Properties=species:S:1:pos:R:3:initial_magmoms:R:1 pbc="T T T"
Si      -1.82465919      -1.38802203       0.37379900       0.00000000
Si      -0.80840754       2.01093534      -0.86931199       0.00000000
Si       1.10395701       0.10953396       2.07363803       0.00000000
Si       1.47983247      -0.70752357      -1.74473888       0.00000000
Si       0.14893947      -0.39537459      -3.65135083       0.00000000
Si       0.65920743       3.62737575      -0.07159242       0.00000000
Si       1.96465545      -2.92876281      -1.14503213       0.00000000
Si      -0.44672067       1.85759757      -3.20805497       0.00000000
Si       3.22711416       1.04482431       1.58331240       0.00000000
Si      -2.94728454      -1.73301165      -1.70059480       0.00000000
