10
Lattice="16.28999089631971 0.0 0.0 0.0 16.28999089631971 0.0 0.0 0.0 34.35334932831803" Properties=species:S:1:pos:R:3:initial_magmoms:R:1 pbc="T T T"
Si       1.46608371      -1.23626439      -1.38440640       0.00000000
Si      -1.23382089       1.51404051      -1.37640206       0.00000000
Si       1.81486890       1.06423614       1.21071577       0.00000000
Si      -1.96393869      -0.85385664       1.35688935       0.00000000
Si      -3.50143776       0.94727720       0.99978608       0.00000000
Si       0.12052971      -2.57149053      -2.75496839       0.00000000
Si      -2.59724502       0.14678085      -2.75256365       0.00000000
Si      -2.68535763      -2.69858511      -0.02851330       0.00000000
Si       2.77363314      -2.61853605       0.08691402       0.00000000
Si       3.49155203      -0.77427999       1.40979354       0.00000000
