10
Lattice="16.28999089631971 0.0 0.0 0.0 16.28999089631971 0.0 0.0 0.0 34.35334932831803" Properties=species:S:1:pos:R:3:initial_magmoms:R:1 pbc="T T T"
Si      -2.12315715      -0.93529035       0.49032563       0.00000000
Si       1.19667222      -1.49387445      -1.41769481       0.00000000
Si      -0.31139964       1.98716823      -1.28505646       0.00000000
Si       0.89051307      -0.06310746       2.22853737       0.00000000
Si      -1.28366829      -3.04388424       1.17021315       0.00000000
Si       0.17050743      -3.55962564      -0.80335352       0.00000000
Si       0.87917523       1.47321873      -3.29290779       0.00000000
Si      -1.06029981       0.33997230       3.55117641       0.00000000
Si       0.48917241      -0.83883726      -3.59449601       0.00000000
Si      -3.22711416      -1.04482431      -1.58331240       0.00000000
