10
Lattice="16.28999089631971 0.0 0.0 0.0 16.28999089631971 0.0 0.0 0.0 34.35334932831803" Properties=species:S:1:pos:R:3:initial_magmoms:R:1 pbc="T T T"
Si       1.70738748      -1.56522465       0.33992658       0.00000000
Si       0.04706507       0.25676298      -2.34111336       0.00000000
Si      -2.03371595      -1.03350276       0.73426890       0.00000000
Si       1.26061794       1.90171089       0.79050536       0.00000000
Si       2.35919925       0.72200538      -2.51641860       0.00000000
Si       0.65601459      -3.60494442      -0.16798797       0.00000000
Si      -1.52338283       1.99311408      -2.68183007       0.00000000
Si       3.45359403      -0.75401523      -1.03331497       0.00000000
Si      -1.40958089      -3.27673350       1.01095093       0.00000000
Si      -2.79673955       0.31470651       2.52009441       0.00000000
