10
Lattice="16.28999089631971 0.0 0.0 0.0 16.28999089631971 0.0 0.0 0.0 34.35334932831803" Properties=species:S:1:pos:R:3:initial_magmoms:R:1 pbc="T T T"
Si      -0.84023820      -0.29496303      -2.17645766       0.00000000
Si      -0.94110588      -0.29607075       2.23039245       0.00000000
Si       0.39219804       2.41961886      -0.11309129       0.00000000
Si       1.44902808      -2.04301035      -0.07722637       0.00000000
Si      -3.07662062      -0.01400940       1.43562727       0.00000000
Si       2.88772830      -1.24895430       1.85755534       0.00000000
Si       0.90596835       0.51624639      -3.54969922       0.00000000
Si      -2.54762568       1.27026162      -2.51638424       0.00000000
Si       1.28510181       2.93975856       2.05735453       0.00000000
Si      -1.28700774       3.17197251      -1.72587888       0.00000000
