10
Lattice="16.28999089631971 0.0 0.0 0.0 16.28999089631971 0.0 0.0 0.0 34.35334932831803" Properties=species:S:1:pos:R:3:initial_magmoms:R:1 pbc="T T T"
Si       0.62105625      -1.55193201       1.66101972       0.00000000
Si       0.89902881       2.17476387       0.16994611       0.00000000
Si       1.43765766      -0.70824033      -1.74669702       0.00000000
Si      -2.31912422      -0.16035876      -0.47466049       0.00000000
Si      -0.31519521       3.04119639      -1.66631014       0.00000000
Si       0.53729307      -3.49721865       0.30509227       0.00000000
Si       3.54573027       0.12657330      -1.03520441       0.00000000
Si       2.64016917      -0.67895091       2.53431670       0.00000000
Si       1.32054885      -3.03598359      -1.86384201       0.00000000
Si      -3.51579644       1.33351569       0.94303432       0.00000000
