10
Lattice="16.28999089631971 0.0 0.0 0.0 16.28999089631971 0.0 0.0 0.0 34.35334932831803" Properties=species:S:1:pos:R:3:initial_magmoms:R:1 pbc="T T T"
Si      -1.39399114       1.31548266       1.35617136       0.00000000
Si       1.30476221      -1.43301501       1.36019414       0.00000000
Si       1.46587031       1.26431577      -1.40208949       0.00000000
Si      -1.72078668      -0.99885393      -1.63253189       0.00000000
Si      -0.24297187       1.64193426      -3.17891442       0.00000000
Si       2.28317219      -0.41808285      -2.85434379       0.00000000
Si      -0.08781613      -0.92843226      -3.57305061       0.00000000
Si      -0.04267003       2.64562632       2.71995200       0.00000000
Si       2.67581006      -0.06175539       2.72180708       0.00000000
Si      -3.49615233       0.88040934      -1.32062064       0.00000000
