10
Lattice="16.28999089631971 0.0 0.0 0.0 16.28999089631971 0.0 0.0 0.0 34.35334932831803" Properties=species:S:1:pos:R:3:initial_magmoms:R:1 pbc="T T T"
Si      -0.34999065      -2.28581280      -0.24167595       0.00000000
Si       1.64462211       0.76914768       1.52425896       0.00000000
Si       0.18423990       0.42987422      -2.32871179       0.00000000
Si      -1.95903214       1.18731198       0.63959102       0.00000000
Si       0.90227052       2.99793734       1.25132145       0.00000000
Si       1.27244448      -2.82278007      -1.88496933       0.00000000
Si       0.86423337      -3.15224532       1.59458031       0.00000000
Si       2.02271301       1.84910138      -2.50394833       0.00000000
Si      -2.67141665      -2.52027477      -0.92523927       0.00000000
Si      -2.04650455       0.71209684      -3.10959821       0.00000000
