10
Lattice="10.86 0.0 0.0 0.0 10.86 0.0 0.0 0.0 10.86" Properties=species:S:1:pos:R:3:initial_magmoms:R:1 pbc="T T T"
Si       1.35833622       1.25618706       1.12159908       0.00000000
Si      -1.35666378      -1.45881294       1.12159908       0.00000000
Si      -1.35666378       1.25618706      -1.59340092       0.00000000
Si       0.00083622       2.61368706       2.47909908       0.00000000
Si      -2.71416378      -0.10131294       2.47909908       0.00000000
Si       2.71583622      -0.10131294       2.47909908       0.00000000
Si       2.61885642       2.64835218      -0.27218418       0.00000000
Si       0.00083622      -2.81631294       2.47909908       0.00000000
Si      -2.71416378       2.61368706      -0.23590092       0.00000000
Si       2.69750454      -2.63153004      -0.51488346       0.00000000
