10
Lattice="10.86 0.0 0.0 0.0 10.86 0.0 0.0 0.0 10.86" Properties=species:S:1:pos:R:3:initial_magmoms:R:1 pbc="T T T"
Si       1.26033558       1.34317566       1.28448822       0.00000000
Si       1.26033558      -1.37182434      -1.43051178       0.00000000
Si      -1.45466442      -1.37182434       1.28448822       0.00000000
Si       2.61783558      -0.01432434       2.64198822       0.00000000
Si       2.61783558       2.70067566      -0.07301178       0.00000000
Si      -0.09716442       2.70067566       2.64198822       0.00000000
Si       2.61783558      -2.72932434      -0.07301178       0.00000000
Si      -0.09716442      -2.72932434       2.64198822       0.00000000
Si       0.04429794       2.65325004      -2.73568830       0.00000000
Si       2.61783558      -0.01432434      -2.78801178       0.00000000
