10
Lattice="16.290000149 0.0 0.0 0.0 16.290000149 0.0 0.0 0.0 29.1751946751" Properties=species:S:1:pos:R:3:initial_magmoms:R:1 pbc="T T T"
Si      -0.43911324       0.24791751      -2.28327933       0.00000000
Si       0.80988994       1.85945465       1.18082283       0.00000000
Si      -1.87362695      -0.80228251       1.19630610       0.00000000
Si       1.63300735      -1.73542259       0.08443943       0.00000000
Si       2.18479853       0.59526919       2.59844845       0.00000000
Si      -0.67087108      -2.19937808       2.63777078       0.00000000
Si      -2.15596523       1.88014295      -2.17749007       0.00000000
Si      -0.48765744      -2.04626837      -2.94984500       0.00000000
Si       1.71585830      -2.42818742      -2.14510560       0.00000000
Si       0.64448128      -3.52255615       1.23711636       0.00000000
