10
Lattice="16.290000149 0.0 0.0 0.0 16.290000149 0.0 0.0 0.0 29.1751946751" Properties=species:S:1:pos:R:3:initial_magmoms:R:1 pbc="T T T"
Si       1.34703640       1.35653347       1.36277334       0.00000000
Si      -1.35239581       1.36699165      -1.35667573       0.00000000
Si      -1.36008469      -1.34477209       1.37213858       0.00000000
Si       1.37775934      -1.34882830      -1.35066564       0.00000000
Si      -0.05082480      -2.75289600      -2.59290458       0.00000000
Si       2.67801086      -2.69821046       0.06786150       0.00000000
Si      -0.02278971       2.72002277       2.69890973       0.00000000
Si      -2.67291209       0.02594997      -2.75060234       0.00000000
Si       2.69275331      -0.00263898       2.73211111       0.00000000
Si       2.69819417       2.73217511       0.01590048       0.00000000
