10
Lattice="16.290000149 0.0 0.0 0.0 16.290000149 0.0 0.0 0.0 29.1751946751" Properties=species:S:1:pos:R:3:initial_magmoms:R:1 pbc="T T T"
Si      -1.36840562       1.33216363      -1.36951281       0.00000000
Si      -1.33171403      -1.39733992       1.34237988       0.00000000
Si       1.29916009      -1.35742942      -1.41668910       0.00000000
Si       1.36096435       1.37891593       1.35037389       0.00000000
Si       2.77975821       0.00866628       2.60368190       0.00000000
Si      -2.73707841      -0.08081469       2.65619725       0.00000000
Si       2.60835482      -2.78528052      -0.11833459       0.00000000
Si      -2.71453708       2.68706810      -0.00487226       0.00000000
Si      -0.00982287       2.69390990      -2.71352651       0.00000000
Si       0.04085532      -2.63207306       2.78876933       0.00000000
