10
Lattice="16.290000149 0.0 0.0 0.0 16.290000149 0.0 0.0 0.0 29.1751946751" Properties=species:S:1:pos:R:3:initial_magmoms:R:1 pbc="T T T"
Si      -1.43294986       1.31979952      -1.28289166       0.00000000
Si      -1.37964898      -1.31751892       1.36420293       0.00000000
Si       1.33537276       1.40434462       1.33806195       0.00000000
Si       1.34643367      -1.27910710      -1.46051025       0.00000000
Si      -0.07724718       2.66036879      -2.59783519       0.00000000
Si       2.68578119      -2.61573419      -0.03903641       0.00000000
Si      -0.02399517      -2.68809437       2.70311096       0.00000000
Si      -2.75276568      -2.64404621       0.00020423       0.00000000
Si       2.69781950       0.06431292       2.70188560       0.00000000
Si      -2.74890495       0.06147846       2.68680203       0.00000000
