10
Lattice="16.290000149 0.0 0.0 0.0 16.290000149 0.0 0.0 0.0 29.1751946751" Properties=species:S:1:pos:R:3:initial_magmoms:R:1 pbc="T T T"
Si       1.35611645      -1.40820535       1.31358397       0.00000000
Si      -1.46063309       1.27951435       1.34509318       0.00000000
Si      -1.10926267      -1.70702912      -1.24735627       0.00000000
Si       1.19090327       1.69310117      -1.19005619       0.00000000
Si       2.36412537      -2.64743453      -0.52891710       0.00000000
Si      -2.77923041      -2.49223970       0.19818710       0.00000000
Si       2.52958290       0.05958882       2.76278299       0.00000000
Si      -2.86385696       2.44889201      -0.11518367       0.00000000
Si      -0.13167533      -2.60835482       2.74818080       0.00000000
Si       0.30546031      -3.65601360      -1.24928184       0.00000000
