10
Lattice="16.290000149 0.0 0.0 0.0 16.290000149 0.0 0.0 0.0 29.1751946751" Properties=species:S:1:pos:R:3:initial_magmoms:R:1 pbc="T T T"
Si       1.36244674      -1.34003170       1.36382365       0.00000000
Si       1.35575155       1.37093383      -1.34585173       0.00000000
Si      -1.35545833       1.35264016       1.36577839       0.00000000
Si      -1.33537276      -1.40434462      -1.33806195       0.00000000
Si       2.70682787      -2.67063149      -0.02290253       0.00000000
Si      -2.76832263      -0.08454510      -2.62095361       0.00000000
Si       0.01153332      -2.73145835       2.69234531       0.00000000
Si      -2.72331335       2.70132185       0.02383613       0.00000000
Si       0.00996948       2.71588511      -2.71160094       0.00000000
Si       2.71295291       2.71912682       0.02176470       0.00000000
