10
Lattice="16.290000149 0.0 0.0 0.0 16.290000149 0.0 0.0 0.0 29.1751946751" Properties=species:S:1:pos:R:3:initial_magmoms:R:1 pbc="T T T"
H       -0.90039718       0.74326384       0.97754407       0.00000000
Si       1.15136092       1.63937674      -1.18139116       0.00000000
Si       1.40322387      -1.16937766       1.46027684       0.00000000
Si      -1.59337378      -1.12824541      -1.34077525       0.00000000
Si      -0.62198479       2.79191055      -2.20937914       0.00000000
Si      -1.98099434       2.45693927       1.76635089       0.00000000
Si       2.61750492       0.43039809      -2.52000744       0.00000000
Si      -0.05657517      -2.34802433       2.87627449       0.00000000
Si      -2.23267484       2.96921091      -0.53095937       0.00000000
Si       2.86385696      -2.44889201       0.11518367       0.00000000
