10
Lattice="16.290000149 0.0 0.0 0.0 16.290000149 0.0 0.0 0.0 29.1751946751" Properties=species:S:1:pos:R:3:initial_magmoms:R:1 pbc="T T T"
H       -1.62428080       0.03260444       0.48637967       0.00000000
Si       1.34919809      -1.42932860       1.22468715       0.00000000
Si      -1.20941571      -1.39080275      -1.46065612       0.00000000
Si       1.40650631       1.35010381      -1.37441425       0.00000000
Si      -1.24992031       1.32863359       1.69394098       0.00000000
H        1.54498760       1.52039947       2.11566842       0.00000000
Si       2.20859333       0.25035775       2.59352893       0.00000000
Si      -2.48941013       2.69080340       0.15258627       0.00000000
Si      -2.52265802      -2.67544845      -0.04300424       0.00000000
Si      -2.68643768      -0.04660406      -2.67028887       0.00000000
