10
Lattice="16.290000149 0.0 0.0 0.0 16.290000149 0.0 0.0 0.0 29.1751946751" Properties=species:S:1:pos:R:3:initial_magmoms:R:1 pbc="T T T"
Si       1.36458073       1.35529543       1.34783564       0.00000000
Si       1.36982611      -1.36348930      -1.33613639       0.00000000
Si      -1.34798122      -1.34845363       1.37771104       0.00000000
Si      -1.34786719       1.35993808      -1.36682870       0.00000000
Si      -0.00998577       2.71958294       2.68076276       0.00000000
Si       2.72098388       0.01215234      -2.68300925       0.00000000
Si       2.71500545      -0.02166570       2.69006965       0.00000000
Si      -2.69661404      -2.70951572       0.02704541       0.00000000
Si       0.02278971      -2.72002277      -2.69890973       0.00000000
Si      -2.70863606       0.00592956      -2.71991587       0.00000000
