10
Lattice="16.290000149 0.0 0.0 0.0 16.290000149 0.0 0.0 0.0 29.1751946751" Properties=species:S:1:pos:R:3:initial_magmoms:R:1 pbc="T T T"
H        1.29542968       0.55027621       0.92319069       0.00000000
Si       1.23191497      -1.85028338      -0.66609887       0.00000000
Si      -1.02446182       1.33644790      -1.61776454       0.00000000
Si      -1.78732253      -0.58692871       1.44163389       0.00000000
H        0.96008374       1.25232634      -2.67186433       0.00000000
Si      -2.09590400       2.44547111       0.25003142       0.00000000
Si      -1.79426207      -0.70501492      -2.62743051       0.00000000
Si       2.47674791       1.08797653       1.97518985       0.00000000
Si      -0.30797874      -2.57228876      -2.26904242       0.00000000
Si      -2.86057290      -2.34597179       0.37854815       0.00000000
