10
Lattice="16.290000149 0.0 0.0 0.0 16.290000149 0.0 0.0 0.0 29.1751946751" Properties=species:S:1:pos:R:3:initial_magmoms:R:1 pbc="T T T"
Si       1.04299984      -1.11619407      -0.00487226       0.00000000
Si      -1.87424597       1.85123471      -0.71429629       0.00000000
Si      -0.33435225       2.57324010       0.88864725       0.00000000
Si      -0.26404461       1.11062615       2.82141638       0.00000000
H        1.21528288       2.18513085      -1.74146737       0.00000000
Si      -1.83780524      -0.57759454       2.38037496       0.00000000
Si      -1.25367841       0.77176156      -2.75343817       0.00000000
Si       2.91313421      -0.21126175       1.10883245       0.00000000
Si       1.31851261      -1.87081855      -2.20226039       0.00000000
Si       0.20386935      -3.04545788       1.00718607       0.00000000
