10
Lattice="16.290000149 0.0 0.0 0.0 16.290000149 0.0 0.0 0.0 29.1751946751" Properties=species:S:1:pos:R:3:initial_magmoms:R:1 pbc="T T T"
Si      -1.32962239       1.31421205       1.41985753       0.00000000
Si      -1.42661305      -1.35966115      -1.27915403       0.00000000
Si       1.32867757      -1.39562947       1.36934068       0.00000000
Si       1.33558453       1.36471496      -1.40822830       0.00000000
Si       0.01863576      -2.55184481      -2.63770018       0.00000000
Si       2.63301788       2.64851945       0.09791195       0.00000000
Si      -2.60841998       2.68719354       0.03257994       0.00000000
Si      -2.74186441      -0.07605801       2.67618226       0.00000000
Si       2.66587481      -0.07094295       2.77397751       0.00000000
Si       2.71031393      -2.75209779       0.04502900       0.00000000
