10
Lattice="16.290000149 0.0 0.0 0.0 16.290000149 0.0 0.0 0.0 29.1751946751" Properties=species:S:1:pos:R:3:initial_magmoms:R:1 pbc="T T T"
Si      -1.14732100      -0.12092067       2.05898101       0.00000000
Si      -1.50863320       1.00900261      -1.51690590       0.00000000
Si       0.99898426      -1.75953179      -1.27209684       0.00000000
Si       1.53033148       1.83124037       0.44495089       0.00000000
H       -2.05187213      -2.79283908      -0.91513833       0.00000000
H        0.70936435      -2.96039802       1.91929018       0.00000000
Si       2.29837241      -0.46436274      -2.77184772       0.00000000
Si      -2.55184481       2.62458129      -0.19693256       0.00000000
Si      -0.20188197       2.45161717      -2.79116170       0.00000000
Si       0.41568822       0.65660104       3.65439736       0.00000000
