10
Lattice="16.290000149 0.0 0.0 0.0 16.290000149 0.0 0.0 0.0 29.1751946751" Properties=species:S:1:pos:R:3:initial_magmoms:R:1 pbc="T T T"
H       -0.64622431      -0.82580527       1.07691479       0.00000000
Si       1.23654133      -1.36694278      -1.41905229       0.00000000
Si      -1.57879423       1.09055035      -1.31848540       0.00000000
Si       1.28808289       1.46391715       1.28656773       0.00000000
H       -2.08951832      -1.73312570       0.53285576       0.00000000
Si      -3.17891208       1.02434779       0.47225888       0.00000000
H       -1.28171350      -2.48328020       2.18180858       0.00000000
Si       2.50035212      -0.02787219       2.65570127       0.00000000
Si      -0.28600353       2.68102451      -2.59606717       0.00000000
Si       2.55966401      -2.73820241      -0.08233240       0.00000000
