10
Lattice="16.290000149 0.0 0.0 0.0 16.290000149 0.0 0.0 0.0 29.1751946751" Properties=species:S:1:pos:R:3:initial_magmoms:R:1 pbc="T T T"
Si      -1.30675123      -1.44261456       1.27425580       0.00000000
Si       1.28798515      -1.42419057      -1.34981956       0.00000000
Si      -1.44397819       1.63158540      -0.91327112       0.00000000
Si       1.14808663       1.12144124       1.73466955       0.00000000
H        2.18636237       1.28386232      -0.82043565       0.00000000
Si      -0.83997757       2.02220331       2.68493482       0.00000000
Si      -2.34996284       0.17296413       2.59422914       0.00000000
Si       2.56072286       2.57989147       0.38712566       0.00000000
Si      -0.09109368       2.64417181      -2.54859913       0.00000000
Si       0.20188197      -2.45161717       2.79116170       0.00000000
