10
Lattice="16.290000149 0.0 0.0 0.0 16.290000149 0.0 0.0 0.0 29.1751946751" Properties=species:S:1:pos:R:3:initial_magmoms:R:1 pbc="T T T"
Si       1.35880756      -1.33975477       1.38046518       0.00000000
Si      -1.50705959      -1.38471517      -1.16678197       0.00000000
Si      -1.40055557       1.34908894       1.36906643       0.00000000
Si       1.48779178       1.20014947      -1.43459684       0.00000000
Si      -2.64755508       0.11611512      -2.54999371       0.00000000
Si      -0.24349478      -2.81261514      -2.49237270       0.00000000
Si       2.66125823       2.66794364       0.01460218       0.00000000
Si       0.13167533       2.60835482      -2.74818080       0.00000000
Si      -0.01536962      -2.70114266       2.74171558       0.00000000
Si       2.67932384       0.00128691       2.77439180       0.00000000
