10
Lattice="16.290000149 0.0 0.0 0.0 16.290000149 0.0 0.0 0.0 29.1751946751" Properties=species:S:1:pos:R:3:initial_magmoms:R:1 pbc="T T T"
Si      -2.19415062      -0.18321363      -0.66799526       0.00000000
Si       1.32662340      -0.24956280      -1.89988868       0.00000000
Si       0.51715701       0.90964990       2.09037352       0.00000000
Si       0.79237656      -2.25955334      -0.21729685       0.00000000
Si       0.77747121       2.12861432      -1.16855407       0.00000000
H        2.07578422      -2.21897495       0.60071726       0.00000000
H       -2.26273152      -1.25294536      -1.73356089       0.00000000
H        1.97221240       2.49212567      -0.27550136       0.00000000
H        3.38475089       0.45866124       0.17502199       0.00000000
Si      -2.64370575       1.95152573      -1.55247046       0.00000000
