10
Lattice="16.290000149 0.0 0.0 0.0 16.290000149 0.0 0.0 0.0 29.1751946751" Properties=species:S:1:pos:R:3:initial_magmoms:R:1 pbc="T T T"
Si       1.31324231       1.28464570      -1.41765188       0.00000000
Si      -1.28808289      -1.46391715      -1.28656773       0.00000000
Si      -1.28798515       1.42419057       1.34981956       0.00000000
Si       1.21226923      -1.49178934       1.36913354       0.00000000
H        0.89837722       2.70805288       0.52938391       0.00000000
H       -1.93430720      -2.28972242      -0.20965295       0.00000000
Si       2.52265802       2.67544845       0.04300424       0.00000000
Si      -2.59473638      -0.01842399       2.62407536       0.00000000
Si      -0.16377966       2.62884439      -2.62728463       0.00000000
Si       2.55969171      -2.79220377      -0.05015216       0.00000000
