10
Lattice="16.290000149 0.0 0.0 0.0 16.290000149 0.0 0.0 0.0 29.1751946751" Properties=species:S:1:pos:R:3:initial_magmoms:R:1 pbc="T T T"
Si       0.59636062       0.09060498       1.40239326       0.00000000
H        2.11532168      -0.75717550      -0.29854977       0.00000000
Si       1.40002777      -0.83443897      -1.62561267       0.00000000
Si      -0.47125341      -2.29524473      -1.77954100       0.00000000
Si      -1.11759175       0.53576181       2.92907284       0.00000000
H       -3.11554398      -0.62916868       0.75855506       0.00000000
Si       1.07447212      -1.93886840       2.46174458       0.00000000
Si       1.05466348       1.11568582      -2.99880156       0.00000000
H       -1.70300549      -2.66263310       1.20907842       0.00000000
Si       2.49409676       1.58975740       1.72291195       0.00000000
