10
Lattice="16.290000149 0.0 0.0 0.0 16.290000149 0.0 0.0 0.0 29.1751946751" Properties=species:S:1:pos:R:3:initial_magmoms:R:1 pbc="T T T"
Si       2.23138793      -0.51267888       0.32860022       0.00000000
Si      -1.04961358       0.67123923       2.07041769       0.00000000
Si      -0.06871122       2.07190883      -1.28455465       0.00000000
Si      -0.65094841      -1.77510503      -1.58564266       0.00000000
Si      -2.38050659       1.98344598      -0.93410221       0.00000000
H       -0.64580077      -2.91980334       1.54050863       0.00000000
Si       2.80121214      -1.54730566      -1.67984936       0.00000000
Si      -3.12126177       1.39530367       1.22564993       0.00000000
Si       3.48112416       1.27006126      -0.51053673       0.00000000
Si       1.17509545      -3.23084460      -1.75083261       0.00000000
