10
Lattice="16.290000149 0.0 0.0 0.0 16.290000149 0.0 0.0 0.0 29.1751946751" Properties=species:S:1:pos:R:3:initial_magmoms:R:1 pbc="T T T"
Si       2.27161771      -0.46617093       0.10613936       0.00000000
Si      -0.27551277       0.75462448       2.19738814       0.00000000
Si      -0.58412683       1.74181804      -1.50144304       0.00000000
Si      -1.53033148      -1.83124037      -0.44495089       0.00000000
H       -1.31851261       1.87081855       2.20226039       0.00000000
Si       2.52745868      -1.29757996      -2.04599805       0.00000000
Si      -1.11464326      -1.17463933       3.20944647       0.00000000
Si      -2.67765248      -1.95216104       1.61403012       0.00000000
Si      -3.03896469      -0.82223776      -1.96185679       0.00000000
Si      -1.73221346       0.62037680      -3.23611259       0.00000000
