10
Lattice="16.290000149 0.0 0.0 0.0 16.290000149 0.0 0.0 0.0 29.1751946751" Properties=species:S:1:pos:R:3:initial_magmoms:R:1 pbc="T T T"
Si       1.35698959       1.28669824      -1.36577839       0.00000000
Si      -1.54054531       1.24872625       1.22847992       0.00000000
Si       1.04840812      -0.83013841       1.94578126       0.00000000
Si      -1.38359116      -1.41403717      -1.30564831       0.00000000
Si      -0.77395420      -2.13200264       2.58716874       0.00000000
Si      -2.44071443      -0.49115979       2.50072264       0.00000000
Si       2.62099586       2.60383924       0.09957494       0.00000000
Si      -0.06069654       2.64648646      -2.67486937       0.00000000
Si       2.72857503      -0.08285094      -2.71148424       0.00000000
Si      -2.71046543      -0.09246204      -2.73356987       0.00000000
