10
Lattice="16.290000149 0.0 0.0 0.0 16.290000149 0.0 0.0 0.0 29.1751946751" Properties=species:S:1:pos:R:3:initial_magmoms:R:1 pbc="T T T"
Si      -2.05917005       0.61526679      -0.88395005       0.00000000
Si       1.04321161      -1.61557868      -1.31997333       0.00000000
Si      -0.52600410      -1.25227910       1.93271077       0.00000000
Si       1.50998527       1.84923919       0.09070568       0.00000000
Si       2.34996284      -0.17296413      -2.59422914       0.00000000
Si      -3.30890628      -1.16747336      -0.04481310       0.00000000
Si       2.55184481      -2.62458129       0.19693256       0.00000000
Si       0.79972498       3.18119105      -1.70388972       0.00000000
Si      -2.13675932       0.28008375       3.01400184       0.00000000
Si       3.49804947       0.94847711      -0.85955959       0.00000000
