10
Lattice="16.290000149 0.0 0.0 0.0 16.290000149 0.0 0.0 0.0 29.1751946751" Properties=species:S:1:pos:R:3:initial_magmoms:R:1 pbc="T T T"
Si      -0.96995548       1.45595134       1.51136261       0.00000000
Si       1.56796138      -1.28013337       1.12382850       0.00000000
Si       1.61722234       1.03035880      -1.39334895       0.00000000
Si      -1.89773615      -1.49915242      -0.32051869       0.00000000
H       -0.37877508      -2.34693290      -2.02146171       0.00000000
H        0.76698208      -0.71527762      -3.15065845       0.00000000
H       -2.49409676      -1.58975740      -1.72291195       0.00000000
Si       0.17462880      -2.71541270       2.30002647       0.00000000
Si      -2.65922849       2.38607777       0.20025854       0.00000000
H       -2.12776724       2.64267785      -1.18696362       0.00000000
