10
Lattice="16.290000149 0.0 0.0 0.0 16.290000149 0.0 0.0 0.0 29.1751946751" Properties=species:S:1:pos:R:3:initial_magmoms:R:1 pbc="T T T"
Si       1.34847312       1.35365014      -1.35682160       0.00000000
Si      -1.34488612       1.36479250       1.35092821       0.00000000
Si       1.34254036      -1.36472734       1.36216066       0.00000000
Si      -1.37085238      -1.34822557      -1.35454594       0.00000000
Si      -2.68198562      -0.08174322       2.60902096       0.00000000
Si       2.67222303      -2.70985781      -0.03153839       0.00000000
Si       2.66311366       2.71937117       0.03731507       0.00000000
Si       2.69515120       0.00778662       2.70926693       0.00000000
Si      -0.02034621       2.71093295      -2.69660489       0.00000000
Si      -0.02647125      -2.67882536      -2.74127212       0.00000000
