10
Lattice="16.290000149 0.0 0.0 0.0 16.290000149 0.0 0.0 0.0 29.1751946751" Properties=species:S:1:pos:R:3:initial_magmoms:R:1 pbc="T T T"
Si       1.27879759      -1.37298149       1.38727759       0.00000000
Si      -1.34674856      -1.21380684      -1.48127423       0.00000000
Si      -1.43264114       1.30709821       1.35147379       0.00000000
Si       1.33586146       1.40651608      -1.35276188       0.00000000
Si      -1.63191593       0.61242744      -3.04967435       0.00000000
Si      -0.29830411       2.59048958      -2.56454921       0.00000000
Si       2.60841998      -2.68719354      -0.03257994       0.00000000
Si      -2.82512586      -2.52056313      -0.10880014       0.00000000
Si      -0.07017895       2.70196205       2.66953907       0.00000000
Si       2.58001022      -0.04572277       2.81270175       0.00000000
