10
Lattice="16.290000149 0.0 0.0 0.0 16.290000149 0.0 0.0 0.0 29.1751946751" Properties=species:S:1:pos:R:3:initial_magmoms:R:1 pbc="T T T"
Si       0.71026030      -1.33195186       1.79459540       0.00000000
Si      -1.77073931       0.96819616       1.24992369       0.00000000
Si       1.37557648       1.83340694      -0.75648362       0.00000000
Si       0.10625967      -1.72256978      -1.80361053       0.00000000
H       -2.16373556      -0.26349075      -1.32292003       0.00000000
Si       2.87147091       0.58790611      -2.04456847       0.00000000
Si       2.69832449      -2.23271394       0.84433013       0.00000000
Si      -0.79972498      -3.18119105       1.70388972       0.00000000
Si      -2.80808652       0.58474585      -2.39744245       0.00000000
Si       1.55023786      -3.35415518      -0.89033942       0.00000000
