10
Lattice="16.290000149 0.0 0.0 0.0 16.290000149 0.0 0.0 0.0 29.1751946751" Properties=species:S:1:pos:R:3:initial_magmoms:R:1 pbc="T T T"
Si      -1.03040767       1.48885714       1.46970043       0.00000000
Si       0.91437400       1.83400967      -1.17068386       0.00000000
Si      -1.33939639      -1.45352413      -1.29485349       0.00000000
Si       1.50599422      -1.30862458       1.29333638       0.00000000
H       -1.91400986       2.33777792       0.57822318       0.00000000
H        2.77105935      -1.00546768      -1.31037469       0.00000000
Si       2.32065713      -2.29110707      -0.65008169       0.00000000
Si       0.44256672      -2.99907048      -1.92486264       0.00000000
Si       0.86669317       2.78883174       2.10315226       0.00000000
Si       2.47738322       2.61153137       0.42473248       0.00000000
