10
Lattice="16.290000149 0.0 0.0 0.0 16.290000149 0.0 0.0 0.0 29.1751946751" Properties=species:S:1:pos:R:3:initial_magmoms:R:1 pbc="T T T"
H       -1.18600975       0.51152229      -0.79899188       0.00000000
Si       1.33644790      -1.06852627      -1.61980681       0.00000000
H       -1.75418867       0.63845398       1.53161019       0.00000000
Si       1.29666772       1.67176127       1.17465169       0.00000000
Si      -0.69185260      -1.85712518       1.42258249       0.00000000
H       -0.55052056       2.16899723      -1.90388568       0.00000000
H        1.52388064      -1.06943851       2.54988284       0.00000000
Si      -3.06642963       1.10035693       0.92762531       0.00000000
H       -1.99381457       1.26167680      -2.44794471       0.00000000
Si       2.56033190       0.03411126       2.33273187       0.00000000
