10
Lattice="16.290000149 0.0 0.0 0.0 16.290000149 0.0 0.0 0.0 29.1751946751" Properties=species:S:1:pos:R:3:initial_magmoms:R:1 pbc="T T T"
Si       0.84584197      -1.84524977       1.12429530       0.00000000
Si      -1.72172270       0.75645874       1.37887805       0.00000000
Si      -1.07466760      -0.08619039      -2.10032226       0.00000000
Si       1.79830199       1.59482359       0.11839294       0.00000000
H        2.32976324       1.85142368      -1.26882922       0.00000000
H       -1.15211026      -3.01018026      -1.04622248       0.00000000
Si      -0.36243621       2.10285983       2.71901144       0.00000000
H        1.66032569       0.92769922      -2.88773159       0.00000000
Si       2.55979433      -2.29040660      -0.40238428       0.00000000
Si      -0.61908517       2.12037158      -2.71279713       0.00000000
