10
Lattice="16.290000149 0.0 0.0 0.0 16.290000149 0.0 0.0 0.0 29.1751946751" Properties=species:S:1:pos:R:3:initial_magmoms:R:1 pbc="T T T"
Si       1.47702197      -1.34419868       1.20963275       0.00000000
Si      -1.41030676      -1.41173703      -1.25535028       0.00000000
Si      -1.21529917       1.43951799       1.42850506       0.00000000
Si       1.37370313       1.33941594      -1.38351691       0.00000000
H        1.06215688       0.07920850       3.15666854       0.00000000
Si       0.16377966      -2.62884439       2.62728463       0.00000000
Si      -2.58212792       2.73890614      -0.00376360       0.00000000
Si      -2.66934458      -0.01980375      -2.68709378       0.00000000
Si       2.68643768       0.04660406       2.67028887       0.00000000
Si       0.02106297      -2.69309215      -2.67078485       0.00000000
