10
Lattice="16.290000149 0.0 0.0 0.0 16.290000149 0.0 0.0 0.0 29.1751946751" Properties=species:S:1:pos:R:3:initial_magmoms:R:1 pbc="T T T"
H        1.19474119       0.36351135       0.89305271       0.00000000
Si       0.85089187       1.47274633      -1.64410975       0.00000000
Si       0.54915219      -2.37817712      -0.73133460       0.00000000
Si      -0.77747121      -2.12861432       1.16855407       0.00000000
Si      -2.19651104       1.40836825       1.03046788       0.00000000
H        2.60727968      -1.66995308       1.34357607       0.00000000
Si      -3.42117696      -0.17708859      -0.38391639       0.00000000
H       -1.87301607      -1.51588225      -2.47038043       0.00000000
Si      -0.26031420      -1.21896442       3.25892760       0.00000000
Si       1.27218385       3.28750122      -0.16104707       0.00000000
