10
Lattice="16.290000149 0.0 0.0 0.0 16.290000149 0.0 0.0 0.0 29.1751946751" Properties=species:S:1:pos:R:3:initial_magmoms:R:1 pbc="T T T"
Si       1.33899403      -1.35418771       1.36677034       0.00000000
Si      -1.35390590      -1.35246097      -1.35752181       0.00000000
Si      -1.32968267       1.34513047       1.39369905       0.00000000
Si       1.35870493       1.35529543      -1.35825119       0.00000000
Si      -2.67222303       2.70985781       0.03153839       0.00000000
Si       2.69049389       0.02805138       2.69362902       0.00000000
Si       0.03579239      -2.71186148      -2.67956658       0.00000000
Si      -2.69154297      -2.70788672       0.02587840       0.00000000
Si      -2.69869428       0.03103245      -2.70973373       0.00000000
Si       2.69971403       2.71653671       0.00761473       0.00000000
