10
Lattice="16.290000149 0.0 0.0 0.0 16.290000149 0.0 0.0 0.0 29.1751946751" Properties=species:S:1:pos:R:3:initial_magmoms:R:1 pbc="T T T"
Si      -1.36309834      -1.36225126       1.32930939       0.00000000
Si       1.33573114      -1.44153469      -1.28878505       0.00000000
Si      -1.38489436       1.35690814      -1.33908309       0.00000000
Si       1.38074041       1.34433226       1.35600470       0.00000000
Si       2.69143382      -0.10096542      -2.60372858       0.00000000
Si       0.01977606      -2.69985575       2.68090864       0.00000000
Si      -2.71279001       0.00278559       2.68458471       0.00000000
Si      -0.03503979       2.75209664      -2.64940235       0.00000000
Si      -2.69803127      -2.71324613      -0.06488563       0.00000000
Si      -2.70863606       2.70861977       0.04554248       0.00000000
