10
Lattice="16.290000149 0.0 0.0 0.0 16.290000149 0.0 0.0 0.0 29.1751946751" Properties=species:S:1:pos:R:3:initial_magmoms:R:1 pbc="T T T"
Si       1.30331404      -1.38329794       1.37202188       0.00000000
Si      -1.37314927      -1.38342826      -1.30909099       0.00000000
Si      -1.32063031       1.37059174       1.37677744       0.00000000
Si       1.35536059       1.34845363      -1.37342229       0.00000000
Si       2.66796319      -0.00241092       2.69184934       0.00000000
Si      -2.68092677       2.69622308      -0.01490852       0.00000000
Si      -0.00109143      -2.72233921      -2.67469432       0.00000000
Si      -2.69622308      -0.01791900      -2.70106870       0.00000000
Si      -2.65251701       0.01619226       2.75177519       0.00000000
Si       2.69746601       2.71422353      -0.02345686       0.00000000
