10
Lattice="16.290000149 0.0 0.0 0.0 16.290000149 0.0 0.0 0.0 29.1751946751" Properties=species:S:1:pos:R:3:initial_magmoms:R:1 pbc="T T T"
H       -1.44049213       0.28624788       0.44325873       0.00000000
Si       0.44955513      -2.13473936       0.88447520       0.00000000
Si      -0.35528490       0.23452713      -2.35945634       0.00000000
Si       1.22466592       1.58545684       1.41438426       0.00000000
H        0.18006966       2.69760773      -0.98370004       0.00000000
H        1.54816089      -1.33879366      -2.08646405       0.00000000
H        0.38097423      -3.20447109      -0.18109043       0.00000000
Si      -0.78716539       2.95230189       1.49274884       0.00000000
Si       3.42117696       0.17708859       0.38391639       0.00000000
Si      -2.66525579       2.24433848       0.21796788       0.00000000
