10
Lattice="16.290000149 0.0 0.0 0.0 16.290000149 0.0 0.0 0.0 29.1751946751" Properties=species:S:1:pos:R:3:initial_magmoms:R:1 pbc="T T T"
H        1.35698959       0.57717100       0.27293395       0.00000000
Si      -0.47052036       0.42000507      -2.21182986       0.00000000
Si      -1.35848827       1.34853508       1.33033053       0.00000000
Si      -0.45558243      -2.20656197       0.61247486       0.00000000
H        2.27941085      -1.19267236      -0.17493447       0.00000000
H        2.94884841      -0.26894790       1.44396791       0.00000000
Si       0.61908517      -2.12037158       2.71279713       0.00000000
Si       1.35184195       1.72186931      -2.85321734       0.00000000
Si      -2.76699010      -2.02828421       1.20796976       0.00000000
Si       0.17974386       2.66646125       2.51539776       0.00000000
