10
Lattice="16.290000149 0.0 0.0 0.0 16.290000149 0.0 0.0 0.0 29.1751946751" Properties=species:S:1:pos:R:3:initial_magmoms:R:1 pbc="T T T"
Si      -1.45808533      -1.29911122       1.30261409       0.00000000
Si       1.37210671      -1.38539935      -1.31095820       0.00000000
Si      -1.36117612       1.32629923      -1.38267083       0.00000000
Si       1.38660481       1.34783461       1.33949154       0.00000000
Si      -0.05183478       2.71946891       2.57161836       0.00000000
Si      -0.21652668      -2.68767083       2.67539453       0.00000000
Si       2.72495864       2.68258835      -0.03492271       0.00000000
Si       0.01272249      -2.73095336      -2.68015008       0.00000000
Si       2.72471429      -0.03860730      -2.68718131       0.00000000
Si      -0.00845451       2.67902084      -2.74462726       0.00000000
