10
Lattice="16.290000149 0.0 0.0 0.0 16.290000149 0.0 0.0 0.0 29.1751946751" Properties=species:S:1:pos:R:3:initial_magmoms:R:1 pbc="T T T"
Si      -1.38868993      -1.35941680       1.31358397       0.00000000
Si      -1.36694278       1.34078104      -1.35717171       0.00000000
Si       1.35171163      -1.36998901      -1.35133667       0.00000000
Si       1.37370313       1.36666585       1.33949154       0.00000000
Si       2.77083129      -0.08420301       2.53036463       0.00000000
Si       0.00811242       2.69806385      -2.68828996       0.00000000
Si      -0.06880896      -2.80043022       2.58941523       0.00000000
Si      -2.68436396       2.71091666       0.02538242       0.00000000
Si      -2.67876020       0.00957852       2.72592596       0.00000000
Si       2.72567540      -0.02764413      -2.69479603       0.00000000
