10
Lattice="16.290000149 0.0 0.0 0.0 16.290000149 0.0 0.0 0.0 29.1751946751" Properties=species:S:1:pos:R:3:initial_magmoms:R:1 pbc="T T T"
Si      -1.53823213      -1.31792617      -1.18506723       0.00000000
Si      -1.40884066       1.17683848       1.47290970       0.00000000
Si       1.38834784      -1.31668813       1.43002217       0.00000000
Si       0.77343292       1.50175231      -1.71255475       0.00000000
H        1.17724573      -2.08929026      -2.24246381       0.00000000
Si      -1.29821527       2.22581675      -2.55732251       0.00000000
Si      -0.17974386      -2.66646125      -2.51539776       0.00000000
Si      -2.57286543       0.22579569      -2.66153631       0.00000000
Si       0.03732039       2.61896124       2.74734056       0.00000000
H       -0.60919714       3.78188643       0.02739551       0.00000000
