10
Lattice="16.290000149 0.0 0.0 0.0 16.290000149 0.0 0.0 0.0 29.1751946751" Properties=species:S:1:pos:R:3:initial_magmoms:R:1 pbc="T T T"
Si      -1.39299049      -1.34324083      -1.32913434       0.00000000
Si      -1.35931906       1.35527914       1.35381656       0.00000000
Si       1.33029028      -1.36974466       1.37243033       0.00000000
Si       1.36008469       1.34477209      -1.37213858       0.00000000
Si      -0.03681540      -2.73835065      -2.61832785       0.00000000
Si       2.70712109       2.70130556      -0.00936524       0.00000000
Si      -2.70226830       2.71181261      -0.01111575       0.00000000
Si       2.68964192      -2.72729137       0.03273457       0.00000000
Si       2.70371648      -0.02326212       2.71661908       0.00000000
Si      -0.01068624       2.71634123       2.70448220       0.00000000
