10
Lattice="10.86 0.0 0.0 0.0 10.86 0.0 0.0 0.0 10.86" Properties=species:S:1:pos:R:3:initial_magmoms:R:1 pbc="T T T"
Si      -1.29000510       1.39669374      -1.29119970       0.00000000
Si      -1.29000510      -1.31830626       1.42380030       0.00000000
Si       1.42499490       1.39669374       1.42380030       0.00000000
Si       2.60800728      -2.36983662      -0.21257364       0.00000000
Si       2.55577068       0.09238602      -2.70711564       0.00000000
Si      -2.54460660      -0.40054938      -2.78641536       0.00000000
Si      -2.71365336      -2.65393422      -0.23428278       0.00000000
Si      -2.64750510       2.75419374       0.06630030       0.00000000
Si       0.06749490       2.75419374      -2.64869970       0.00000000
Si      -2.64750510       0.03919374       2.78130030       0.00000000
