10
Lattice="10.86 0.0 0.0 0.0 10.86 0.0 0.0 0.0 10.86" Properties=species:S:1:pos:R:3:initial_magmoms:R:1 pbc="T T T"
Si       1.53198762       1.05153036       1.63637394       0.00000000
Si       1.53198762      -1.66346964      -1.07862606       0.00000000
Si      -1.18301238      -1.66346964       1.63637394       0.00000000
Si      -0.05223660       2.46222264      -2.49454200       0.00000000
Si      -2.60800728       2.36983662       0.21257364       0.00000000
Si      -0.13943154      -2.52869670      -2.76496686       0.00000000
Si       2.88948762       2.40903036       0.27887394       0.00000000
Si       2.88948762      -0.30596964      -2.43612606       0.00000000
Si       0.17448762       2.40903036       2.99387394       0.00000000
Si      -2.54051238      -0.30596964       2.99387394       0.00000000
