10
Lattice="10.86 0.0 0.0 0.0 10.86 0.0 0.0 0.0 10.86" Properties=species:S:1:pos:R:3:initial_magmoms:R:1 pbc="T T T"
Si      -1.33356456       1.40598990      -1.24469718       0.00000000
Si      -1.33356456      -1.30901010       1.47030282       0.00000000
Si       1.38143544       1.40598990       1.47030282       0.00000000
Si       1.37013018      -2.13153564      -0.88994442       0.00000000
Si       2.45697726      -0.09009456      -2.06823270       0.00000000
Si      -0.12927744      -2.69289990      -2.57039910       0.00000000
Si      -2.69106456       0.04848990      -2.60219718       0.00000000
Si      -2.69106456      -2.66651010       0.11280282       0.00000000
Si       0.02393544       2.76348990      -2.60219718       0.00000000
Si      -2.69106456       2.76348990       0.11280282       0.00000000
