10
Lattice="10.86 0.0 0.0 0.0 10.86 0.0 0.0 0.0 10.86" Properties=species:S:1:pos:R:3:initial_magmoms:R:1 pbc="T T T"
Si      -1.64132610      -1.21159590      -1.03463220       0.00000000
Si      -1.41939114       1.05256206       1.93260216       0.00000000
Si       1.19071212      -1.32738522       1.95724350       0.00000000
Si      -0.23940870       1.88160360      -1.88830422       0.00000000
Si      -0.22810344      -2.72587086      -2.24305698       0.00000000
Si      -2.94310344      -0.01087086      -2.24305698       0.00000000
Si       2.48689656      -2.72587086       0.47194302       0.00000000
Si      -2.94310344       2.70412914       0.47194302       0.00000000
Si      -2.94310344      -2.72587086       0.47194302       0.00000000
Si       2.48689656      -0.01087086       3.18694302       0.00000000
