10
Lattice="16.28999089631971 0.0 0.0 0.0 16.28999089631971 0.0 0.0 0.0 34.25627252547053" Properties=species:S:1:pos:R:3:initial_magmoms:R:1 pbc="T T T"
Si       0.66877943       1.77648966      -1.38898986       0.00000000
Si       1.66849836      -1.28065464       1.13888467       0.00000000
Si      -0.67827880      -1.69714107      -1.54800756       0.00000000
Si      -1.54603081       1.49625279       1.09315252       0.00000000
Si       2.91984729       1.28417328      -1.02878495       0.00000000
Si       3.50332251      -0.82217259      -0.15614018       0.00000000
Si      -3.62461852       0.31719888       1.03457426       0.00000000
Si       1.23994104      -2.25249975      -2.87889875       0.00000000
Si      -1.47285613      -3.56340492      -0.29213766       0.00000000
Si      -2.58039694      -0.98201007      -2.71169379       0.00000000
