10
Lattice="16.28999089631971 0.0 0.0 0.0 16.28999089631971 0.0 0.0 0.0 34.25627252547053" Properties=species:S:1:pos:R:3:initial_magmoms:R:1 pbc="T T T"
Si       1.37376828      -1.27465082       1.36902187       0.00000000
Si      -1.19817837      -1.49702561      -1.39018339       0.00000000
Si      -1.35570267       1.44832761       1.34319947       0.00000000
Si       1.00538622       1.58377896      -1.61199288       0.00000000
Si      -1.42126992       0.35445574      -2.81678665       0.00000000
Si       2.06894403      -0.25796844      -2.69514256       0.00000000
Si       2.57792508       2.69825931      -0.04209756       0.00000000
Si      -0.01418859      -2.61007244       2.71918222       0.00000000
Si      -2.74826961      -2.63263409      -0.04600277       0.00000000
Si       2.73548196      -2.66856983      -0.03178641       0.00000000
