10
Lattice="16.28999089631971 0.0 0.0 0.0 16.28999089631971 0.0 0.0 0.0 34.25627252547053" Properties=species:S:1:pos:R:3:initial_magmoms:R:1 pbc="T T T"
Si       1.35742941      -1.35708895      -1.35754258       0.00000000
Si      -1.35879777      -1.35511460       1.35846750       0.00000000
Si       1.35865116       1.35697329       1.35723428       0.00000000
Si      -1.35806472       1.35821133      -1.35750833       0.00000000
Si       2.71414206      -0.00004887       2.71186507       0.00000000
Si      -2.71394658       0.00026064       2.71313256       0.00000000
Si      -2.71445157      -2.71491903       0.00027405       0.00000000
Si      -0.00055386       2.71490769      -2.71460558       0.00000000
Si      -2.71583622       0.00097740      -2.71368066       0.00000000
Si       2.71489140      -2.71468580       0.00020554       0.00000000
