10
Lattice="16.28999089631971 0.0 0.0 0.0 16.28999089631971 0.0 0.0 0.0 34.25627252547053" Properties=species:S:1:pos:R:3:initial_magmoms:R:1 pbc="T T T"
Si      -0.27642501      -0.72384615      -2.21216996       0.00000000
Si       1.05412590      -1.55261619       1.41259587       0.00000000
Si       0.93656097       1.59599646      -1.54472037       0.00000000
Si      -1.65545496       1.16996409       1.40768694       0.00000000
Si      -2.55262671      -1.03964409      -1.65197682       0.00000000
Si       2.42281170       2.72251512      -0.07295562       0.00000000
Si       2.39647077      -0.17749584       2.78340591       0.00000000
Si      -1.02232782       3.22540371      -1.57215966       0.00000000
Si      -0.31920255       2.53247598       2.78518724       0.00000000
Si       2.40982857      -3.00094380       0.06939640       0.00000000
