10
Lattice="16.28999089631971 0.0 0.0 0.0 16.28999089631971 0.0 0.0 0.0 34.25627252547053" Properties=species:S:1:pos:R:3:initial_magmoms:R:1 pbc="T T T"
Si       1.35739683      -1.35702216       1.35723428       0.00000000
Si      -1.35786924      -1.35713619      -1.35713151       0.00000000
Si      -1.35702216       1.35808101       1.35743981       0.00000000
Si       1.35777150       1.35744570      -1.35747407       0.00000000
Si      -2.71192499       0.00117288      -2.71299553       0.00000000
Si       0.00083079       2.71472850       2.71333809       0.00000000
Si       2.71375110       0.00008145      -2.71460558       0.00000000
Si      -2.71362567      -2.71524978      -0.00027405       0.00000000
Si       2.71508688      -2.71458189      -0.00013703       0.00000000
Si       0.00024435      -2.71536381       2.71433153       0.00000000
