10
Lattice="16.28999089631971 0.0 0.0 0.0 16.28999089631971 0.0 0.0 0.0 34.25627252547053" Properties=species:S:1:pos:R:3:initial_magmoms:R:1 pbc="T T T"
Si       1.35314514       1.33825608      -1.37888425       0.00000000
Si       1.38204360      -1.27896048       1.42701434       0.00000000
Si      -1.35454608      -1.37831319      -1.37432817       0.00000000
Si      -1.32093981       1.31351157       1.56791047       0.00000000
Si      -0.48772260      -2.32466445       2.70395187       0.00000000
Si      -2.31572124      -0.55530981       2.76595576       0.00000000
Si      -2.71273623       2.67934662       0.01377103       0.00000000
Si       2.70829395       2.70485676      -0.00685126       0.00000000
Si       2.70234810      -2.71995759      -0.00733085       0.00000000
Si       0.00109143       2.69451261      -2.73865349       0.00000000
