10
Lattice="16.28999089631971 0.0 0.0 0.0 16.28999089631971 0.0 0.0 0.0 34.25627252547053" Properties=species:S:1:pos:R:3:initial_magmoms:R:1 pbc="T T T"
Si      -0.75730581       1.55507598       1.66807587       0.00000000
Si      -1.50569936       0.32436648      -2.02403299       0.00000000
Si      -1.11241152      -2.20757845       0.64754668       0.00000000
Si       2.37156336       1.19081529      -0.41960532       0.00000000
Si       2.35468692      -0.76753593       1.25936405       0.00000000
Si      -3.01483007       0.82059246       1.37792508       0.00000000
Si       1.45503909       3.39402150       0.01812158       0.00000000
Si       0.38771829       1.05982740       3.62352776       0.00000000
Si      -3.45373154       1.28199042      -0.99531655       0.00000000
Si      -0.20838168       1.70523720      -3.52480113       0.00000000
