10
Lattice="16.28999089631971 0.0 0.0 0.0 16.28999089631971 0.0 0.0 0.0 34.25627252547053" Properties=species:S:1:pos:R:3:initial_magmoms:R:1 pbc="T T T"
Si       0.95207882       1.80315639      -1.14025492       0.00000000
Si      -2.04768299      -0.13307301      -1.12436001       0.00000000
Si      -0.13276187       0.30195144       2.32809184       0.00000000
Si       1.48621163      -1.80747324      -0.23513519       0.00000000
Si       2.17765697       0.55902393       2.72549908       0.00000000
Si       3.15911318      -1.02998412       1.24555877       0.00000000
Si      -0.94527368       3.19168341      -1.46521011       0.00000000
Si      -3.58513319      -0.14002884       0.68824316       0.00000000
Si       1.99151114      -1.72841787      -2.53294446       0.00000000
Si       2.19813350       0.71436537      -2.83751715       0.00000000
