10
Lattice="16.28999089631971 0.0 0.0 0.0 16.28999089631971 0.0 0.0 0.0 34.25627252547053" Properties=species:S:1:pos:R:3:initial_magmoms:R:1 pbc="T T T"
Si       1.35640314       1.35684297       1.35730279       0.00000000
Si       1.35742941      -1.35749457      -1.35702874       0.00000000
Si      -1.35651717      -1.35801585       1.35747407       0.00000000
Si      -1.35796698       1.35780408      -1.35720002       0.00000000
Si      -0.00094482       2.71340901      -2.71371491       0.00000000
Si      -0.00102627      -2.71503801       2.71210487       0.00000000
Si       2.71394658      -2.71446786       0.00027405       0.00000000
Si       0.00047241      -2.71355562      -2.71518793       0.00000000
Si       2.71432125       0.00133578      -2.71446855       0.00000000
Si       0.00413766       2.71210581       2.71741459       0.00000000
