10
Lattice="16.28999089631971 0.0 0.0 0.0 16.28999089631971 0.0 0.0 0.0 34.25627252547053" Properties=species:S:1:pos:R:3:initial_magmoms:R:1 pbc="T T T"
Si      -1.78722477      -0.83398284      -1.28920128       0.00000000
Si      -1.27550700       1.51497000       1.33243272       0.00000000
Si       1.76107932      -1.64766834       0.06642295       0.00000000
Si       1.03728204       1.86318504      -1.13169085       0.00000000
Si      -0.37931265      -2.16736821      -2.63204791       0.00000000
Si       2.33991189       0.57386412      -2.64109158       0.00000000
Si      -1.41936399      -2.88763056       1.83521231       0.00000000
Si      -3.11943726      -2.06179272       0.20039931       0.00000000
Si       0.93108753      -3.49544304      -1.14923007       0.00000000
Si       1.59780465      -2.60327232       2.26838312       0.00000000
