10
Lattice="16.28999089631971 0.0 0.0 0.0 16.28999089631971 0.0 0.0 0.0 34.25627252547053" Properties=species:S:1:pos:R:3:initial_magmoms:R:1 pbc="T T T"
Si      -1.13648814       1.61640783       1.20660936       0.00000000
Si      -0.48018033      -1.82772171       1.34658057       0.00000000
Si      -0.21084147      -0.23711724      -2.35810035       0.00000000
Si       2.19488202       0.94978845       0.44509200       0.00000000
Si       1.51215183       2.84289822      -0.85579068       0.00000000
Si       1.54264671      -2.92387581       1.10808827       0.00000000
Si      -0.80936865       3.38856435      -0.28717049       0.00000000
Si      -0.16094520       1.22782617       3.41932601       0.00000000
Si       1.86872364      -1.28508552      -2.89078569       0.00000000
Si       1.69033185      -3.03508764      -1.25693185       0.00000000
