10
Lattice="16.28999089631971 0.0 0.0 0.0 16.28999089631971 0.0 0.0 0.0 34.25627252547053" Properties=species:S:1:pos:R:3:initial_magmoms:R:1 pbc="T T T"
Si      -0.28828413      -1.77082074      -1.48870992       0.00000000
Si       1.19058723       1.96533963      -0.62161467       0.00000000
Si       1.80155997      -1.13318127       1.10205916       0.00000000
Si      -1.88170677       0.72715302       1.40786508       0.00000000
Si      -0.27834723      -0.15553692       3.37922015       0.00000000
Si      -2.12190282      -0.78889212      -2.55161414       0.00000000
Si      -0.60518979       3.04595307      -1.55424221       0.00000000
Si      -2.44380951       2.57983101      -0.18906047       0.00000000
Si      -0.95576688      -3.56744484       0.00616613       0.00000000
Si      -2.19089097       1.58719986      -2.60358094       0.00000000
