10
Lattice="16.28999089631971 0.0 0.0 0.0 16.28999089631971 0.0 0.0 0.0 34.25627252547053" Properties=species:S:1:pos:R:3:initial_magmoms:R:1 pbc="T T T"
Si       1.35707103       1.35569793      -1.35689171       0.00000000
Si      -1.35816246      -1.35625653      -1.35767961       0.00000000
Si      -1.35728280       1.35746301       1.35743981       0.00000000
Si       1.35782037      -1.35769005       1.35713151       0.00000000
Si       2.71410948       0.00311139      -2.71104292       0.00000000
Si       0.00281817       2.71350742      -2.71474260       0.00000000
Si      -2.71593396      -0.00086337      -2.71241317       0.00000000
Si      -2.71467963      -2.71511946      -0.00017128       0.00000000
Si      -2.71474479       2.71505986      -0.00030831       0.00000000
Si       2.71536381      -0.00107514       2.71446855       0.00000000
