10
Lattice="16.28999089631971 0.0 0.0 0.0 16.28999089631971 0.0 0.0 0.0 34.25627252547053" Properties=species:S:1:pos:R:3:initial_magmoms:R:1 pbc="T T T"
Si      -1.35733167       1.35685926      -1.36172185       0.00000000
Si       1.35868374      -1.35896067      -1.36254400       0.00000000
Si      -1.36438524      -1.34785089       1.36809352       0.00000000
Si       1.34335485       1.37518551       1.38275521       0.00000000
Si       2.67331932      -0.03510495       2.73872201       0.00000000
Si      -2.71168227       2.71308256      -0.00232943       0.00000000
Si       2.71555929       2.71370223       0.00102769       0.00000000
Si       2.71800279      -2.71565703      -0.00609762       0.00000000
Si      -2.71953405      -2.71445157      -0.00393947       0.00000000
Si       0.00035838       2.71500645      -2.71953848       0.00000000
