10
Lattice="16.28999089631971 0.0 0.0 0.0 16.28999089631971 0.0 0.0 0.0 34.25627252547053" Properties=species:S:1:pos:R:3:initial_magmoms:R:1 pbc="T T T"
Si       0.31262139       2.26875717       0.57516314       0.00000000
Si      -0.53988318      -1.76810031       1.47863857       0.00000000
Si       2.23057341      -0.70074693      -0.69591657       0.00000000
Si      -1.99601370      -0.06344955      -1.41149624       0.00000000
Si       2.67478542       2.13135102       1.23976945       0.00000000
Si       0.26184546       3.30196412      -1.61604056       0.00000000
Si       0.25215291      -3.68061147       0.24691935       0.00000000
Si      -3.73795227      -0.03808602       0.22509809       0.00000000
Si      -1.58241060      -1.95950781      -2.84111406       0.00000000
Si      -2.96098443      -1.78680123       1.59370546       0.00000000
