10
Lattice="16.28999089631971 0.0 0.0 0.0 16.28999089631971 0.0 0.0 0.0 34.25627252547053" Properties=species:S:1:pos:R:3:initial_magmoms:R:1 pbc="T T T"
Si       1.35733938      -1.35694071       1.35754258       0.00000000
Si      -1.35799956       1.35850455       1.35733704       0.00000000
Si       1.35794650       1.35834165      -1.35809068       0.00000000
Si      -1.35979146      -1.35853713      -1.35733704       0.00000000
Si       2.71431703      -2.71387327      -0.00003426       0.00000000
Si      -0.00083079       2.71467963       2.71422876       0.00000000
Si       2.71473243      -0.00040725       2.71436578       0.00000000
Si       0.00314397      -2.71368431      -2.71587306       0.00000000
Si      -2.71539639      -2.71462099       0.00054810       0.00000000
Si       0.00014661      -2.71495004       2.71532496       0.00000000
