10
Lattice="16.28999089631971 0.0 0.0 0.0 16.28999089631971 0.0 0.0 0.0 34.25627252547053" Properties=species:S:1:pos:R:3:initial_magmoms:R:1 pbc="T T T"
Si      -0.74174886      -2.13967521       0.70852288       0.00000000
Si       1.00901889       0.93877641       1.99587432       0.00000000
Si      -1.73337003       1.15079076      -1.33161057       0.00000000
Si       2.00997164       0.76637934      -1.25819934       0.00000000
Si       3.60592901      -0.48985659       0.09012830       0.00000000
Si       0.94224618      -3.54388950      -0.03086492       0.00000000
Si      -3.57936912       1.05972966       0.08262618       0.00000000
Si      -0.65818116      -2.09551302       3.02435097       0.00000000
Si      -0.52994628      -1.01354751      -3.61414154       0.00000000
Si       0.11580561       3.08745999       2.25755813       0.00000000
