10
Lattice="16.28999089631971 0.0 0.0 0.0 16.28999089631971 0.0 0.0 0.0 34.25627252547053" Properties=species:S:1:pos:R:3:initial_magmoms:R:1 pbc="T T T"
Si       1.16287861       1.86958701       0.78412652       0.00000000
Si       0.49379863      -0.47882826      -2.26817758       0.00000000
Si      -2.28558474       0.64236357      -0.26774718       0.00000000
Si       0.06235812      -1.44453204       1.95250586       0.00000000
Si      -0.65407608       3.25601262       1.23000641       0.00000000
Si      -1.36576989      -1.74700476      -2.83087143       0.00000000
Si       2.39115113      -1.86735528      -1.94322240       0.00000000
Si      -2.16614646      -2.30557257       1.79482415       0.00000000
Si      -3.36435741      -0.22972158       1.60689413       0.00000000
Si       1.96187216       1.55310489       2.95282383       0.00000000
