10
Lattice="16.28999089631971 0.0 0.0 0.0 16.28999089631971 0.0 0.0 0.0 34.25627252547053" Properties=species:S:1:pos:R:3:initial_magmoms:R:1 pbc="T T T"
Si       1.91005041      -0.86952762      -1.05163390       0.00000000
Si      -0.32785254      -1.82250891       1.51652603       0.00000000
Si       0.48723390       1.74868263       1.57626900       0.00000000
Si      -1.85310153       0.54651321      -1.46147617       0.00000000
Si      -1.63879029       1.28238138       2.60690380       0.00000000
Si       1.55663414      -1.50723225       2.85111690       0.00000000
Si      -2.22874893      -1.06930818       2.60231345       0.00000000
Si       3.03639966      -1.87701525       0.97394063       0.00000000
Si       3.00760871       0.96664860      -2.06709315       0.00000000
Si      -3.72863439       0.64474191       0.01613471       0.00000000
