10
Lattice="16.28999089631971 0.0 0.0 0.0 16.28999089631971 0.0 0.0 0.0 34.25627252547053" Properties=species:S:1:pos:R:3:initial_magmoms:R:1 pbc="T T T"
Si      -1.35679410       1.35691742       1.35692597       0.00000000
Si       1.35686814       1.35697136      -1.35757684       0.00000000
Si      -1.35720135      -1.35778779      -1.35665192       0.00000000
Si       1.35751658      -1.35762489       1.35713151       0.00000000
Si      -2.71572219       0.00322542      -2.71107718       0.00000000
Si      -0.00146610      -2.71477737      -2.71234466       0.00000000
Si      -0.00047241      -2.71433754       2.71405748       0.00000000
Si       2.71481388       0.00084708       2.71385194       0.00000000
Si      -2.71446786      -0.00096111       2.71443430       0.00000000
Si       0.00097740       2.71443269       2.71474260       0.00000000
