10
Lattice="16.28999089631971 0.0 0.0 0.0 16.28999089631971 0.0 0.0 0.0 34.25627252547053" Properties=species:S:1:pos:R:3:initial_magmoms:R:1 pbc="T T T"
Si       1.35607734      -1.26983808      -1.41505890       0.00000000
Si      -1.04661621      -1.65317436       1.30225293       0.00000000
Si       2.00808459       0.80715225       1.06119140       0.00000000
Si      -1.37702628       1.47114405      -1.39707434       0.00000000
Si      -1.77406245       0.02458161       2.82443125       0.00000000
Si      -0.01503567      -2.60828964      -2.79038049       0.00000000
Si       2.67775673      -2.72728809       0.14576052       0.00000000
Si      -2.77658163      -2.64184704      -0.04566364       0.00000000
Si       2.69487099       0.10472067      -2.78866768       0.00000000
Si       0.57049209      -3.56101029       1.44475910       0.00000000
