10
Lattice="16.28999089631971 0.0 0.0 0.0 16.28999089631971 0.0 0.0 0.0 34.25627252547053" Properties=species:S:1:pos:R:3:initial_magmoms:R:1 pbc="T T T"
Si       1.15621533      -1.67047434      -1.15635538       0.00000000
Si      -2.30255892      -0.48358494      -0.20834677       0.00000000
Si       0.50841090       1.98230471      -1.18221888       0.00000000
Si       0.65834406       0.36927216       2.25677024       0.00000000
Si       0.53673921      -3.62498112       0.06964304       0.00000000
Si      -3.27486015       1.51281876       0.65474050       0.00000000
Si       2.86767435       1.19670480       2.12275963       0.00000000
Si       3.44666331      -1.28285379      -0.89994704       0.00000000
Si       0.16850376       1.73797100      -3.44097599       0.00000000
Si       0.77385645      -1.55598822      -3.49715630       0.00000000
