10
Lattice="16.28999089631971 0.0 0.0 0.0 16.28999089631971 0.0 0.0 0.0 34.25627252547053" Properties=species:S:1:pos:R:3:initial_magmoms:R:1 pbc="T T T"
Si      -2.00120858      -1.04010021      -0.63908538       0.00000000
Si       1.67239656       0.59101749      -1.54399958       0.00000000
Si      -0.78937919       2.19186837       0.33077875       0.00000000
Si      -0.28729044      -1.93849371       1.60059097       0.00000000
Si       1.15452117       3.29841549       1.22010634       0.00000000
Si       2.09368854       2.90985012      -1.00137992       0.00000000
Si       1.78601931      -0.70385832       3.22468176       0.00000000
Si      -2.11515061      -3.06934388       0.56666758       0.00000000
Si       0.83668698       0.37093959      -3.74054726       0.00000000
Si       3.67771185      -0.59018670      -1.16642673       0.00000000
