10
Lattice="16.28999089631971 0.0 0.0 0.0 16.28999089631971 0.0 0.0 0.0 34.25627252547053" Properties=species:S:1:pos:R:3:initial_magmoms:R:1 pbc="T T T"
Si       1.34708363       1.32626664      -1.37709950       0.00000000
Si       1.35405575      -1.35830907       1.35586402       0.00000000
Si      -1.36112934       1.35563751       1.35531592       0.00000000
Si      -1.35707985      -1.36365219      -1.38266615       0.00000000
Si      -0.16727712       2.56458357      -2.69037610       0.00000000
Si       2.71192499      -0.00117288       2.71299553       0.00000000
Si      -0.00317329       2.71412577       2.71299553       0.00000000
Si      -0.00170068      -2.71642266       2.71272148       0.00000000
Si       2.71120823      -2.71806795      -0.00274050       0.00000000
Si       2.71441736       2.71503801      -0.00630316       0.00000000
