10
Lattice="16.28999089631971 0.0 0.0 0.0 16.28999089631971 0.0 0.0 0.0 34.25627252547053" Properties=species:S:1:pos:R:3:initial_magmoms:R:1 pbc="T T T"
Si      -1.35315444      -1.11509937      -1.54458194       0.00000000
Si       1.62077143      -1.53697779       0.78861409       0.00000000
Si       0.96229217       2.05124073      -0.78611338       0.00000000
Si      -2.08240887       0.89246689       0.97287868       0.00000000
Si      -1.02116424       1.12019229       3.12352293       0.00000000
Si       0.33020107      -3.35236797       1.53848432       0.00000000
Si      -3.56294181      -0.93559986      -0.58102096       0.00000000
Si      -2.70683715       2.41798076      -0.85846267       0.00000000
Si      -0.75099459       3.62578652      -0.52833479       0.00000000
Si      -2.41223250       0.95585063      -2.78729743       0.00000000
