10
Lattice="10.86 0.0 0.0 0.0 10.86 0.0 0.0 0.0 10.86" Properties=species:S:1:pos:R:3:initial_magmoms:R:1 pbc="T T T"
Si       1.23256656      -1.18521696      -1.42673250       0.00000000
Si       1.23256656       1.52978304       1.28826750       0.00000000
Si      -1.48243344       1.52978304      -1.42673250       0.00000000
Si       2.59006656      -2.54271696      -0.06923250       0.00000000
Si       2.59006656       0.17228304       2.64576750       0.00000000
Si       2.59006656       0.17228304      -2.78423250       0.00000000
Si       0.10930590      -2.33918970      -3.02222940       0.00000000
Si       2.59006656       2.88728304      -0.06923250       0.00000000
Si      -0.12493344       2.88728304       2.64576750       0.00000000
Si      -2.93162442       0.28861536      -2.58419130       0.00000000
