10
Lattice="10.86 0.0 0.0 0.0 10.86 0.0 0.0 0.0 10.86" Properties=species:S:1:pos:R:3:initial_magmoms:R:1 pbc="T T T"
Si      -1.23171948       1.28745300      -1.29655368       0.00000000
Si       1.48328052       1.28745300       1.41844632       0.00000000
Si       1.48328052      -1.42754700      -1.29655368       0.00000000
Si      -2.58921948       2.64495300       0.06094632       0.00000000
Si      -2.50300194      -0.01942854      -2.75673498       0.00000000
Si       0.12578052       2.64495300      -2.65405368       0.00000000
Si       0.11585448      -2.68146432       2.64866712       0.00000000
Si       0.12578052       2.64495300       2.77594632       0.00000000
Si      -2.51848830      -2.88137520      -0.33000282       0.00000000
Si      -2.55777978      -0.02383770       2.86646442       0.00000000
