10
Lattice="10.86 0.0 0.0 0.0 10.86 0.0 0.0 0.0 10.86" Properties=species:S:1:pos:R:3:initial_magmoms:R:1 pbc="T T T"
Si       1.06502934      -1.57186554       1.44821358       0.00000000
Si      -1.63132404      -1.21578786      -1.33357542       0.00000000
Si      -2.00059662       1.17870096       1.24631532       0.00000000
Si      -0.38512818       2.46721824      -2.37283398       0.00000000
Si       2.30324310      -2.77266660       0.11677758       0.00000000
Si       2.30324310      -0.05766660       2.83177758       0.00000000
Si      -0.41175690      -2.77266660      -2.59822242       0.00000000
Si      -0.41175690       2.65733340       2.83177758       0.00000000
Si      -0.41175690      -2.77266660       2.83177758       0.00000000
Si       3.52902216       1.29379524       1.38492150       0.00000000
