10
Lattice="10.86 0.0 0.0 0.0 10.86 0.0 0.0 0.0 10.86" Properties=species:S:1:pos:R:3:initial_magmoms:R:1 pbc="T T T"
Si       1.30735938       0.84500574       1.51582794       0.00000000
Si      -1.43426934       1.03512090      -1.42456050       0.00000000
Si       1.28073066      -1.67987910      -1.42456050       0.00000000
Si      -1.43426934      -1.67987910       1.29043950       0.00000000
Si       0.00410508       2.37799248       2.26927302       0.00000000
Si       2.59648482       2.30562144      -0.03991050       0.00000000
Si      -0.07676934       2.39262090      -2.78206050       0.00000000
Si      -2.79176934       2.39262090      -0.06706050       0.00000000
Si       0.06116352      -2.83800036       2.55508650       0.00000000
Si       2.63823066      -0.32237910      -2.78206050       0.00000000
