10
Lattice="10.86 0.0 0.0 0.0 10.86 0.0 0.0 0.0 10.86" Properties=species:S:1:pos:R:3:initial_magmoms:R:1 pbc="T T T"
Si      -1.35750000       1.35750000      -1.35750000       0.00000000
Si      -1.35750000      -1.35750000       1.35750000       0.00000000
Si       1.35750000       1.35750000       1.35750000       0.00000000
Si       1.35750000      -1.35750000      -1.35750000       0.00000000
Si       2.48366028      -0.12113244       2.48703774       0.00000000
Si      -2.52655728      -2.52689394      -0.15434232       0.00000000
Si      -2.40350262      -0.05349636      -2.69034780       0.00000000
Si      -2.85417090       2.47718772       0.13324134       0.00000000
Si       2.85293286      -2.51562126      -0.09285300       0.00000000
Si       0.00000000      -2.71500000       2.71500000       0.00000000
