10
Lattice="10.86 0.0 0.0 0.0 10.86 0.0 0.0 0.0 10.86" Properties=species:S:1:pos:R:3:initial_magmoms:R:1 pbc="T T T"
Si      -1.12616028       1.47863244      -1.12953774       0.00000000
Si      -1.12616028      -1.23636756       1.58546226       0.00000000
Si       2.00059662      -1.17870096      -1.24631532       0.00000000
Si       1.58883972       1.47863244       1.58546226       0.00000000
Si      -2.48366028       0.12113244      -2.48703774       0.00000000
Si       0.36927258      -2.39448882      -2.57989074       0.00000000
Si      -2.48366028      -2.59386756       0.22796226       0.00000000
Si      -2.48366028       2.83613244       0.22796226       0.00000000
Si      -2.48366028       0.12113244       2.94296226       0.00000000
Si       0.23133972      -2.59386756       2.94296226       0.00000000
