10
Lattice="10.86 0.0 0.0 0.0 10.86 0.0 0.0 0.0 10.86" Properties=species:S:1:pos:R:3:initial_magmoms:R:1 pbc="T T T"
Si      -1.40595732       1.25466666      -1.26290940       0.00000000
Si       1.30904268       1.25466666       1.45209060       0.00000000
Si      -1.40595732      -1.46033334       1.45209060       0.00000000
Si       2.52737178      -0.34064562      -2.48716806       0.00000000
Si      -0.04845732       2.61216666      -2.62040940       0.00000000
Si       2.66654268       2.61216666       0.09459060       0.00000000
Si       2.53482174      -2.82387150       0.00523452       0.00000000
Si      -2.76345732       2.61216666       0.09459060       0.00000000
Si      -0.04845732       2.61216666       2.80959060       0.00000000
Si       2.66654268      -0.10283334       2.80959060       0.00000000
