10
Lattice="16.2900001489832 0.0 0.0 0.0 16.2900001489832 0.0 0.0 0.0 29.41874646731717" Properties=species:S:1:pos:R:3:initial_magmoms:R:1 pbc="T T T"
Si       1.35557073       1.33399463      -1.42074894       0.00000000
Si       1.49338413      -1.25673572       1.36561821       0.00000000
Si      -1.40607299       1.32580076       1.42933922       0.00000000
Si      -1.29092468      -1.38242806      -1.48829438       0.00000000
Si       0.18692286      -2.81620871       2.53286581       0.00000000
Si       2.68431347      -2.69597222      -0.08107807       0.00000000
Si       0.08568703       2.59220166       2.79330998       0.00000000
Si       2.74473308       2.66588133      -0.02353500       0.00000000
Si      -2.70601500      -2.71051919      -0.15191841       0.00000000
Si      -0.05120110       2.65078050      -2.79157427       0.00000000
