10
Lattice="16.2900001489832 0.0 0.0 0.0 16.2900001489832 0.0 0.0 0.0 29.41874646731717" Properties=species:S:1:pos:R:3:initial_magmoms:R:1 pbc="T T T"
Si      -1.38916234      -1.33188670      -1.39721394       0.00000000
Si      -1.36104580       1.37394748       1.39424265       0.00000000
Si       1.44404335      -1.29521791       1.39035938       0.00000000
Si       1.35207001       1.32864499      -1.47152570       0.00000000
Si       2.65101833      -2.65115517      -0.12261734       0.00000000
Si       0.15599304       2.61581564       2.75274153       0.00000000
Si      -2.69719234       2.68957676      -0.11802801       0.00000000
Si      -2.74473308      -2.66588133       0.02353500       0.00000000
Si      -2.65904605      -0.07367967       2.81684497       0.00000000
Si       2.79839397       0.23516244       2.66919229       0.00000000
