10
Lattice="16.2900001489832 0.0 0.0 0.0 16.2900001489832 0.0 0.0 0.0 29.41874646731717" Properties=species:S:1:pos:R:3:initial_magmoms:R:1 pbc="T T T"
Si       2.32947002      -0.16633719      -0.06204414       0.00000000
Si      -0.87177565       1.66654847      -1.42216104       0.00000000
Si      -1.14513814      -1.97369642      -0.65839155       0.00000000
Si      -0.61625071       0.01615968       2.31246057       0.00000000
H        0.74885131      -2.32554413       1.33358120       0.00000000
Si       2.22132071      -1.99374941       1.43557599       0.00000000
Si      -3.09520754       1.00950760      -0.97949716       0.00000000
Si      -2.54514962      -0.95030811      -2.24788642       0.00000000
Si      -0.56104390       3.75367215      -0.35711416       0.00000000
Si      -0.22364541       3.26471151       1.96158318       0.00000000
