10
Lattice="16.2900001489832 0.0 0.0 0.0 16.2900001489832 0.0 0.0 0.0 29.41874646731717" Properties=species:S:1:pos:R:3:initial_magmoms:R:1 pbc="T T T"
Si      -2.32947002       0.16633719       0.06204414       0.00000000
Si      -0.10814931      -1.82741222       1.49762013       0.00000000
Si       0.91598671       1.86339683       1.13397500       0.00000000
Si       0.74308465      -0.48207975      -2.21793813       0.00000000
H       -1.58061871      -2.15920694       1.39562533       0.00000000
H        2.84079684       1.40369302      -0.46978796       0.00000000
Si       2.90224272      -1.40396832      -1.81969656       0.00000000
H        1.29376810       3.04486167      -1.79813262       0.00000000
Si      -2.94572073       0.18249687       2.37450470       0.00000000
Si       1.00150921       3.63151344      -0.43207313       0.00000000
