10
Lattice="16.2900001489832 0.0 0.0 0.0 16.2900001489832 0.0 0.0 0.0 29.41874646731717" Properties=species:S:1:pos:R:3:initial_magmoms:R:1 pbc="T T T"
Si       1.45585360       1.38908089       1.20819850       0.00000000
Si       1.34094394      -1.40862889      -1.31460610       0.00000000
Si      -1.39618333       1.40212918      -1.26662413       0.00000000
Si      -1.27850437      -1.39251808       1.43834135       0.00000000
Si       0.07436385       2.77320963      -2.55229690       0.00000000
Si      -2.76426642      -0.01721853      -2.57827365       0.00000000
Si      -2.68006340       2.68007969       0.26821071       0.00000000
Si       2.61838946      -0.10800270      -2.78151600       0.00000000
Si       0.21092292       2.68682375       2.71308506       0.00000000
Si       2.71927343      -2.69897609       0.10896704       0.00000000
