10
Lattice="16.2900001489832 0.0 0.0 0.0 16.2900001489832 0.0 0.0 0.0 29.41874646731717" Properties=species:S:1:pos:R:3:initial_magmoms:R:1 pbc="T T T"
Si       1.04114278       2.11512620       0.13679717       0.00000000
Si       0.96471010      -1.72120142      -1.35582177       0.00000000
Si       0.90738559      -0.59173426       2.14186126       0.00000000
H       -2.04375971      -1.39968568       0.13879765       0.00000000
Si      -2.12099060       1.10011258      -0.74741267       0.00000000
H        1.74231326       0.67010545       2.32725820       0.00000000
Si       2.02308770      -0.06232554      -2.63950877       0.00000000
Si      -1.02682387       2.61597854      -2.34620387       0.00000000
Si      -0.74679877       0.15483645       3.61112171       0.00000000
Si      -0.80169607      -2.87383296      -2.46199605       0.00000000
