10
Lattice="16.2900001489832 0.0 0.0 0.0 16.2900001489832 0.0 0.0 0.0 29.41874646731717" Properties=species:S:1:pos:R:3:initial_magmoms:R:1 pbc="T T T"
Si       2.00225279       0.98261281      -0.74088171       0.00000000
Si       0.64430209      -1.75234790       1.50250364       0.00000000
Si      -1.24455601      -0.89303410      -1.90971793       0.00000000
Si      -1.43542594       1.76767679       0.96814153       0.00000000
H       -0.53815644       1.37878561      -2.44334457       0.00000000
H       -3.03388221      -0.37123281      -0.31633978       0.00000000
Si       0.77480128       2.15034518      -2.34443874       0.00000000
Si      -3.18707337       0.27052803       1.04210026       0.00000000
H        3.33736491      -0.51559479       0.56634029       0.00000000
Si      -0.34464753      -3.60341319       0.43174952       0.00000000
