10
Lattice="16.2900001489832 0.0 0.0 0.0 16.2900001489832 0.0 0.0 0.0 29.41874646731717" Properties=species:S:1:pos:R:3:initial_magmoms:R:1 pbc="T T T"
Si      -0.46362969       1.52096473      -1.67274992       0.00000000
Si       2.17245071       0.20025297       0.77235977       0.00000000
Si      -0.54503082      -2.18028620      -0.72014149       0.00000000
Si      -2.10548252      -0.57140434       1.78836560       0.00000000
Si      -0.58393135      -2.46692504       1.55872286       0.00000000
Si       1.34926813      -1.33731127       2.37929996       0.00000000
H       -0.31043853       0.87920389      -3.03118996       0.00000000
H       -0.59616514      -1.41200092      -2.96090858       0.00000000
Si      -3.40175439       0.04215852      -0.10455422       0.00000000
Si      -2.65831625       1.95875849      -1.20622744       0.00000000
