10
Lattice="16.2900001489832 0.0 0.0 0.0 16.2900001489832 0.0 0.0 0.0 29.41874646731717" Properties=species:S:1:pos:R:3:initial_magmoms:R:1 pbc="T T T"
Si      -1.75164743      -1.49714875       0.07395873       0.00000000
Si      -0.56410642       1.58061871      -1.67325004       0.00000000
Si       0.14545341       1.01825533       2.21452556       0.00000000
Si       1.43542594      -1.76767679      -0.96814153       0.00000000
H       -1.59845626      -2.13890960      -1.28448131       0.00000000
H        0.89726950      -0.38889117      -3.41148610       0.00000000
Si       1.58387671       2.38834208      -2.26244870       0.00000000
Si      -1.28801773      -3.01811349       1.74670865       0.00000000
Si       1.47958813      -0.64923796       3.35976794       0.00000000
Si       1.28335879       3.13935996       1.66018812       0.00000000
