10
Lattice="16.2900001489832 0.0 0.0 0.0 16.2900001489832 0.0 0.0 0.0 29.41874646731717" Properties=species:S:1:pos:R:3:initial_magmoms:R:1 pbc="T T T"
Si      -0.82683154      -1.59956398       1.53980661       0.00000000
Si       1.75962953       0.93934657       1.33177783       0.00000000
Si       0.91489528      -0.68875750      -2.16710254       0.00000000
Si      -1.73947880       1.74474047       0.01926928       0.00000000
Si       2.32329611       1.27092952      -2.37924112       0.00000000
H       -2.13719915      -2.82613584      -0.94272373       0.00000000
Si       0.48601215       2.33437331       2.79733152       0.00000000
Si      -2.29182383      -0.39156273       2.90806074       0.00000000
Si      -1.68985946      -3.40068414       0.39205040       0.00000000
Si       3.43771131       1.74702107      -0.15436016       0.00000000
