10
Lattice="16.2900001489832 0.0 0.0 0.0 16.2900001489832 0.0 0.0 0.0 29.41874646731717" Properties=species:S:1:pos:R:3:initial_magmoms:R:1 pbc="T T T"
Si       1.35705475       1.34534224       1.34899662       0.00000000
Si      -1.31123098       1.37468053      -1.39903791       0.00000000
Si      -1.35299854      -1.31761666       1.43651739       0.00000000
Si       1.42456051      -1.31496139      -1.37815060       0.00000000
Si       0.20468385      -2.72262917       2.53413082       0.00000000
Si      -0.08850357       2.67621896       2.67639988       0.00000000
Si       2.71044425       2.64284075      -0.09384580       0.00000000
Si       0.06812478      -2.63624330      -2.73125113       0.00000000
Si       2.82939384      -0.04510701       2.53386605       0.00000000
Si      -2.71321355      -0.01011609      -2.68161876       0.00000000
