10
Lattice="16.2900001489832 0.0 0.0 0.0 16.2900001489832 0.0 0.0 0.0 29.41874646731717" Properties=species:S:1:pos:R:3:initial_magmoms:R:1 pbc="T T T"
Si       1.24662484       1.53976502       1.23032140       0.00000000
Si      -1.29200878       1.41246682      -1.37267871       0.00000000
Si       1.44555832      -1.33087672      -1.32740326       0.00000000
Si      -1.34817670      -1.35439948       1.43492878       0.00000000
Si       2.38301525      -0.04346172       2.45655359       0.00000000
H        1.87512563      -1.72923239       2.69955243       0.00000000
Si      -2.49898376       2.76840408       0.14029800       0.00000000
Si       0.08850357      -2.67621896      -2.67639988       0.00000000
Si      -2.64440459       0.04194675      -2.74056216       0.00000000
Si      -2.75672415      -2.72054405       0.15103584       0.00000000
