10
Lattice="16.2900001489832 0.0 0.0 0.0 16.2900001489832 0.0 0.0 0.0 29.41874646731717" Properties=species:S:1:pos:R:3:initial_magmoms:R:1 pbc="T T T"
Si      -1.37740096       1.03105927       1.69501992       0.00000000
Si       1.06088626      -1.94518892       1.00379705       0.00000000
Si       1.94777903       1.44899551      -0.37238249       0.00000000
Si      -1.32177061      -0.30662667      -2.11376635       0.00000000
Si       1.35355240       2.21573324      -2.48167720       0.00000000
Si      -1.45756405      -0.83189773       3.25438999       0.00000000
Si       0.31770387       0.45284571      -3.66684082       0.00000000
Si       0.71500069      -1.61890021       3.35132476       0.00000000
Si       0.22002903      -3.93369295      -0.11123228       0.00000000
Si       3.96777163       0.15234408      -0.39662354       0.00000000
