10
Lattice="16.2900001489832 0.0 0.0 0.0 16.2900001489832 0.0 0.0 0.0 29.41874646731717" Properties=species:S:1:pos:R:3:initial_magmoms:R:1 pbc="T T T"
H       -0.14990058      -0.75210442       0.15424249       0.00000000
Si       2.35340003      -0.07990082       1.19528367       0.00000000
Si       2.34514100      -0.55139533      -1.16465875       0.00000000
Si      -1.83933650       1.97119265       0.78097946       0.00000000
H        0.03121164      -1.40091884       2.54633960       0.00000000
Si      -2.90574507      -0.06681506       0.13409065       0.00000000
Si      -2.04991733      -0.50063569      -2.04510300       0.00000000
Si       1.63859483       2.15942360       1.51082914       0.00000000
Si       1.24807465      -2.06942786       1.96784937       0.00000000
Si       1.08466966      -2.51101719      -1.73211695       0.00000000
