10
Lattice="16.2900001489832 0.0 0.0 0.0 16.2900001489832 0.0 0.0 0.0 29.41874646731717" Properties=species:S:1:pos:R:3:initial_magmoms:R:1 pbc="T T T"
Si      -2.23777361      -0.46884575       0.35879103       0.00000000
Si       1.07955460      -0.55959734       1.99873905       0.00000000
Si       1.32924772      -1.41000214      -1.38168085       0.00000000
Si       0.12678507       2.30279840      -0.64809498       0.00000000
H        1.26136729      -2.04889595       2.04160217       0.00000000
Si       2.88385131       0.66578208       1.29436601       0.00000000
H        2.23938632       2.04500915       1.30342698       0.00000000
Si       3.23480307      -0.07970208      -0.98011496       0.00000000
Si      -2.66497886      -1.02290287      -1.85870582       0.00000000
H       -2.03235671       1.16233549       2.62041600       0.00000000
