10
Lattice="16.2900001489832 0.0 0.0 0.0 16.2900001489832 0.0 0.0 0.0 29.41874646731717" Properties=species:S:1:pos:R:3:initial_magmoms:R:1 pbc="T T T"
Si       0.64446499      -1.37922707      -0.00906097       0.00000000
Si       0.99797428       1.93407914      -0.96205185       0.00000000
Si      -0.28465146       2.22710366       1.00453252       0.00000000
Si      -2.34939269       1.32375799       0.19707618       0.00000000
Si      -2.11260125       0.25778925      -1.95152197       0.00000000
Si      -1.15983172      -2.60460649       0.69531207       0.00000000
Si      -0.19995975       1.29103138      -2.86270880       0.00000000
Si       2.35208054      -1.39836456       1.66471861       0.00000000
Si       0.99541675      -2.12471124      -2.28354194       0.00000000
Si      -2.23938632      -2.04500915      -1.30342698       0.00000000
