10
Lattice="16.2900001489832 0.0 0.0 0.0 16.2900001489832 0.0 0.0 0.0 29.41874646731717" Properties=species:S:1:pos:R:3:initial_magmoms:R:1 pbc="T T T"
Si       0.64694107      -0.82355236      -2.06078319       0.00000000
Si       1.58371381       0.92477028       1.42360256       0.00000000
Si      -0.91430884      -1.72698111       1.26071096       0.00000000
Si      -1.35723394       1.71569865      -0.80939797       0.00000000
H       -2.46497024       0.89838048      -1.43910624       0.00000000
H        0.82875376      -2.31285096      -2.01792008       0.00000000
Si      -0.81384841      -0.74813292       3.52348326       0.00000000
Si       2.45123777       0.40182706      -2.76515624       0.00000000
Si       2.12459069       3.02756495       0.39697656       0.00000000
H        1.80677279       1.78105413      -2.75609526       0.00000000
