10
Lattice="16.2900001489832 0.0 0.0 0.0 16.2900001489832 0.0 0.0 0.0 29.41874646731717" Properties=species:S:1:pos:R:3:initial_magmoms:R:1 pbc="T T T"
Si       1.27744552       1.30062619      -1.46690990       0.00000000
Si      -1.34094394       1.40862889       1.31460610       0.00000000
Si      -1.34943103      -1.30103344      -1.43328133       0.00000000
Si       1.37832949      -1.29034720       1.42357314       0.00000000
Si       0.11490966       2.79770979       2.52280460       0.00000000
Si       0.10684611      -2.80344387      -2.55897495       0.00000000
Si      -2.61944831       0.01611081       2.75294746       0.00000000
Si      -2.68475492      -2.71251308      -0.02759478       0.00000000
Si       2.76835521      -2.62984133       0.04253951       0.00000000
Si       0.05230719      -2.55928934       2.88918567       0.00000000
