10
Lattice="16.2900001489832 0.0 0.0 0.0 16.2900001489832 0.0 0.0 0.0 29.41874646731717" Properties=species:S:1:pos:R:3:initial_magmoms:R:1 pbc="T T T"
Si      -1.01569780      -0.14222799      -2.07199173       0.00000000
Si      -0.11350872       2.23759442       0.72414244       0.00000000
Si      -1.23904999      -1.62093646       1.23641108       0.00000000
Si       2.34611840      -0.54239185       0.11938127       0.00000000
H       -0.75096901       1.16595676      -2.79542813       0.00000000
Si       2.67299354       0.12491172       2.41492606       0.00000000
Si      -0.31060143      -1.20876688       3.48665099       0.00000000
Si      -1.12423807      -3.62546985      -0.19495803       0.00000000
Si       0.22599117      -1.64673983      -3.44399381       0.00000000
Si      -3.44403183      -0.07079634      -1.85926478       0.00000000
