10
Lattice="16.2900001489832 0.0 0.0 0.0 16.2900001489832 0.0 0.0 0.0 29.41874646731717" Properties=species:S:1:pos:R:3:initial_magmoms:R:1 pbc="T T T"
Si      -1.35643573      -1.32128191      -1.35310053       0.00000000
Si       1.49439574      -1.40568040       1.11555887       0.00000000
Si       1.27179289       1.23847984      -1.53372870       0.00000000
Si      -1.42456051       1.31496139       1.37815060       0.00000000
Si       0.02505402      -2.70541064       2.40739486       0.00000000
Si       2.63417447       2.65434149      -0.18345530       0.00000000
Si       2.81522154       0.01352070       2.50453556       0.00000000
Si      -2.67278177       0.09684405      -2.67172230       0.00000000
Si      -0.06750576       2.66030363       2.72714722       0.00000000
Si      -2.73579150       2.68964192      -0.02088731       0.00000000
