10
Lattice="16.2900001489832 0.0 0.0 0.0 16.2900001489832 0.0 0.0 0.0 29.41874646731717" Properties=species:S:1:pos:R:3:initial_magmoms:R:1 pbc="T T T"
Si       2.19921518       0.26039565      -0.64121100       0.00000000
Si       0.89142139      -0.76784545       2.05281071       0.00000000
Si      -0.49063851      -1.95646160      -1.30222081       0.00000000
Si      -1.45090144       1.91234828      -0.10584865       0.00000000
Si       1.36656811      -3.22844997      -0.65500839       0.00000000
Si      -2.76032424       1.12254391      -2.11258960       0.00000000
Si      -2.56409489      -2.66605400      -0.41300978       0.00000000
Si       2.88043041      -1.69086944      -1.68213450       0.00000000
Si       2.00534789      -2.85729861       1.57487375       0.00000000
Si      -0.04250061       3.87203530      -0.31798723       0.00000000
