10
Lattice="16.2900001489832 0.0 0.0 0.0 16.2900001489832 0.0 0.0 0.0 29.41874646731717" Properties=species:S:1:pos:R:3:initial_magmoms:R:1 pbc="T T T"
Si       1.38497581       1.38349342      -1.32134888       0.00000000
Si       1.48476835      -1.29645595       1.30833991       0.00000000
Si      -1.34829073       1.30346065       1.46776010       0.00000000
Si      -1.36238158      -1.41586165      -1.35027339       0.00000000
Si      -2.63417447      -2.65434149       0.18345530       0.00000000
Si       0.18104706      -2.64082079       2.68799086       0.00000000
Si      -0.07529238       2.61502395      -2.74163007       0.00000000
Si       2.71997390       2.67942158       0.19148662       0.00000000
Si      -2.72049518      -0.01858689      -2.69629578       0.00000000
Si       2.58621671      -0.01642032      -2.82845067       0.00000000
