10
Lattice="16.2900001489832 0.0 0.0 0.0 16.2900001489832 0.0 0.0 0.0 29.41874646731717" Properties=species:S:1:pos:R:3:initial_magmoms:R:1 pbc="T T T"
H       -0.50788962      -1.68577067       0.24299885       0.00000000
Si      -1.13639041       1.58322674      -1.22623219       0.00000000
Si       1.65996731      -1.13914342      -1.23049791       0.00000000
Si      -0.85582774       0.43382062       2.17919364       0.00000000
H        1.90001675      -0.25146873       2.19934549       0.00000000
H        2.04991733       0.50063569       2.04510300       0.00000000
Si      -0.85550194      -3.22452408       0.66206889       0.00000000
Si      -2.38301525       0.04346172      -2.45655359       0.00000000
Si       3.13458699      -2.01038150       0.31298604       0.00000000
Si      -2.04446018       3.12662118       0.35629044       0.00000000
