10
Lattice="16.2900001489832 0.0 0.0 0.0 16.2900001489832 0.0 0.0 0.0 29.41874646731717" Properties=species:S:1:pos:R:3:initial_magmoms:R:1 pbc="T T T"
Si      -1.99174574      -0.70066549       1.05816289       0.00000000
Si      -0.07462449       1.68728726      -1.69307828       0.00000000
Si       0.79223158      -2.02030211      -1.03230381       0.00000000
Si       0.90921007       0.87674410       2.10126339       0.00000000
H        2.86233222       0.35318349       0.71917068       0.00000000
H        1.87411565      -1.91081702       1.93684201       0.00000000
H        2.68121999       1.00199791      -1.67292644       0.00000000
Si       1.19148319      -1.20614419       3.09805877       0.00000000
Si      -1.02442924      -1.90568567       2.89730525       0.00000000
H        0.27331362      -0.43230402      -3.62927308       0.00000000
