10
Lattice="16.2900001489832 0.0 0.0 0.0 16.2900001489832 0.0 0.0 0.0 29.41874646731717" Properties=species:S:1:pos:R:3:initial_magmoms:R:1 pbc="T T T"
Si      -1.50086287      -1.87396904       0.00673689       0.00000000
Si       1.83599705      -0.12030165      -1.61250033       0.00000000
Si      -1.64283023       1.81394039       0.00582491       0.00000000
Si       1.27558846       0.75973303       1.98344131       0.00000000
H        0.10023237       1.22807053      -3.27280613       0.00000000
Si       2.28955952       2.61022817       0.87620794       0.00000000
Si       3.06893829      -1.91627417      -0.58502119       0.00000000
Si      -0.72852139       3.54092149      -1.25488605       0.00000000
Si      -0.35249931       1.26330580       3.64724793       0.00000000
Si      -3.07032294      -1.48618558       1.85264556       0.00000000
