10
Lattice="16.2900001489832 0.0 0.0 0.0 16.2900001489832 0.0 0.0 0.0 29.41874646731717" Properties=species:S:1:pos:R:3:initial_magmoms:R:1 pbc="T T T"
Si      -1.18987048       1.52948277      -1.37865072       0.00000000
Si       1.62808777      -0.50357277      -1.66380663       0.00000000
Si      -1.40840083      -1.95968702       0.21213858       0.00000000
Si       1.11441520       0.47609154       2.22488096       0.00000000
H        1.62057808       2.61899219      -0.70034268       0.00000000
H       -0.57604699       2.54512193       2.09255544       0.00000000
Si      -2.32329611      -1.27092952       2.37924112       0.00000000
Si       0.39833937       3.32645061      -1.25612164       0.00000000
Si       3.31931559      -1.56849895      -0.23158437       0.00000000
Si      -0.56366659      -0.33158295       3.71101895       0.00000000
