10
Lattice="16.2900001489832 0.0 0.0 0.0 16.2900001489832 0.0 0.0 0.0 29.41874646731717" Properties=species:S:1:pos:R:3:initial_magmoms:R:1 pbc="T T T"
Si       1.35163018       1.33052486      -1.36378837       0.00000000
Si       1.44410281      -1.32727012       1.33169840       0.00000000
Si      -1.30653946       1.48198928       1.31872473       0.00000000
Si      -1.33499809      -1.29592816      -1.51283550       0.00000000
Si      -2.72606636       0.07371062       2.55075241       0.00000000
Si      -0.10515195       2.73024312      -2.58526649       0.00000000
Si       0.02901249      -2.65536125       2.66807437       0.00000000
Si       2.68382639       2.70593844       0.02841851       0.00000000
Si      -2.71997390      -2.67942158      -0.19148662       0.00000000
Si       2.70611274      -2.70587654      -0.17945435       0.00000000
