10
Lattice="16.2900001489832 0.0 0.0 0.0 16.2900001489832 0.0 0.0 0.0 29.41874646731717" Properties=species:S:1:pos:R:3:initial_magmoms:R:1 pbc="T T T"
Si       1.42174234       0.21525443      -1.87459194       0.00000000
Si      -1.70761556       0.01913749      -1.67377958       0.00000000
Si      -0.16700508      -2.10020619       1.20978711       0.00000000
Si       0.23270265       1.95111685       1.51983128       0.00000000
H       -2.35208054       1.39836456      -1.66471861       0.00000000
H        3.18108028       0.15773444       1.46876034       0.00000000
Si      -2.57513951       0.54208071       2.51497922       0.00000000
Si      -2.03426264       2.64487538       1.48835322       0.00000000
Si      -1.14077242      -1.31338289       3.22247065       0.00000000
Si       0.73971262       2.31283630      -2.82634723       0.00000000
