10
Lattice="16.2900001489832 0.0 0.0 0.0 16.2900001489832 0.0 0.0 0.0 29.41874646731717" Properties=species:S:1:pos:R:3:initial_magmoms:R:1 pbc="T T T"
Si      -2.29988738       0.32117364      -0.24049825       0.00000000
Si       1.09428076       2.06871599      -0.22364131       0.00000000
Si       0.53315541      -1.70961923      -1.56231195       0.00000000
Si       0.52339770       0.08136855       2.32005060       0.00000000
H       -1.73322344      -1.48652767       1.59767328       0.00000000
H        1.94035567       0.58559293       2.10805912       0.00000000
H        1.46093608       2.30208653      -1.67578006       0.00000000
H        2.15541789      -1.34669431      -1.98432387       0.00000000
Si      -0.77209714       3.43007130       0.16839290       0.00000000
Si      -2.13759011       2.39679659      -1.44731407       0.00000000
