10
Lattice="16.2900001489832 0.0 0.0 0.0 16.2900001489832 0.0 0.0 0.0 29.41874646731717" Properties=species:S:1:pos:R:3:initial_magmoms:R:1 pbc="T T T"
Si       1.80527411       0.84732436       1.38993280       0.00000000
Si      -0.75761533      -1.84194290       1.39687857       0.00000000
Si      -1.82335601       1.65283229       0.03594971       0.00000000
Si       0.38154438      -0.39175821      -2.42051562       0.00000000
Si      -0.69605542      -2.43489890      -2.51215502       0.00000000
Si      -2.14332419      -0.55211698       2.86811008       0.00000000
Si       0.60403321       2.24723810       2.89703459       0.00000000
Si       2.89411401       2.51333688       0.15106526       0.00000000
Si      -2.93777121       1.17674074      -2.18893125       0.00000000
Si      -0.85623499       3.47876863       1.47675341       0.00000000
