10
Lattice="16.2900001489832 0.0 0.0 0.0 16.2900001489832 0.0 0.0 0.0 29.41874646731717" Properties=species:S:1:pos:R:3:initial_magmoms:R:1 pbc="T T T"
Si       1.08883990       1.66601252      -1.23886754       0.00000000
Si      -1.20124090       1.39991374       1.50710179       0.00000000
Si       1.49196853      -1.35218404       1.34037987       0.00000000
Si      -1.80527411      -0.84732436      -1.38993280       0.00000000
H       -0.04098564       2.67312386      -1.10354131       0.00000000
Si      -2.56288943      -2.68926725       0.00694577       0.00000000
Si      -2.66150909       2.63144427       0.08682060       0.00000000
Si      -2.58621671       0.01642032       2.82845067       0.00000000
Si       2.75503487       2.67542238       0.15351584       0.00000000
Si       0.21380625      -2.71940375       2.77220203       0.00000000
