10
Lattice="16.2900001489832 0.0 0.0 0.0 16.2900001489832 0.0 0.0 0.0 29.41874646731717" Properties=species:S:1:pos:R:3:initial_magmoms:R:1 pbc="T T T"
Si       0.01308087       2.34838271      -0.19878247       0.00000000
Si      -0.40529520      -1.32177061      -1.91869064       0.00000000
Si       1.99524809      -1.24853077       0.58586404       0.00000000
Si      -1.65246087      -0.46327131       1.73454694       0.00000000
Si       1.12010041       2.62438418       1.87781035       0.00000000
Si      -1.79227306      -2.90287803      -0.79795408       0.00000000
Si       0.98543098      -3.04974867       1.78657105       0.00000000
Si      -0.36644355      -1.75549187       3.23928935       0.00000000
Si      -3.24757443      -1.77429053       0.56983729       0.00000000
Si       3.04945545      -2.08767755      -1.32775628       0.00000000
