10
Lattice="16.2900001489832 0.0 0.0 0.0 16.2900001489832 0.0 0.0 0.0 29.41874646731717" Properties=species:S:1:pos:R:3:initial_magmoms:R:1 pbc="T T T"
Si       1.41509032       1.32809113      -1.33637598       0.00000000
Si       1.33742530      -1.34886088       1.43263412       0.00000000
Si      -1.26421804      -1.32051628      -1.55122108       0.00000000
Si      -1.42446277       1.43824183       1.29654299       0.00000000
Si      -2.56793933      -2.66488112      -0.17157013       0.00000000
Si      -0.02901249       2.65536125      -2.66807437       0.00000000
Si       2.70601500       2.71051919       0.15191841       0.00000000
Si      -0.10388133      -2.42178545       2.98359043       0.00000000
Si       2.70355847      -2.74300797       0.08543204       0.00000000
Si      -2.85324240       0.13017339       2.60450046       0.00000000
