10
Lattice="16.2900001489832 0.0 0.0 0.0 16.2900001489832 0.0 0.0 0.0 29.41874646731717" Properties=species:S:1:pos:R:3:initial_magmoms:R:1 pbc="T T T"
Si       1.46099310       1.30134295       1.32213730       0.00000000
Si       1.36225126      -1.40333464      -1.32787396       0.00000000
Si      -1.34416936      -1.31214322       1.47782131       0.00000000
Si      -1.25874460       1.46406376      -1.42492640       0.00000000
Si      -2.62811459      -2.62728380      -0.03756774       0.00000000
Si       0.08115678       2.70982523       2.56149025       0.00000000
Si       2.73579150      -0.09778887      -2.71683006       0.00000000
Si      -2.67229307       2.79855687      -0.06330914       0.00000000
Si       2.76902310      -2.72012051       0.04295137       0.00000000
Si       0.03005505      -2.77874823      -2.72008083       0.00000000
