10
Lattice="16.2900001489832 0.0 0.0 0.0 16.2900001489832 0.0 0.0 0.0 29.41874646731717" Properties=species:S:1:pos:R:3:initial_magmoms:R:1 pbc="T T T"
Si      -1.35718833      -1.47862702       1.19054725       0.00000000
Si       2.22689189      -0.30625200       0.64591800       0.00000000
Si      -0.36949141       0.35815194      -2.32155096       0.00000000
Si      -0.62983168       1.91619272       1.26150527       0.00000000
H        2.17575758       0.46203327      -1.59484908       0.00000000
H       -1.26496575      -2.69096141      -1.45060897       0.00000000
H       -1.40443096      -0.96137065       2.94187465       0.00000000
Si       0.66644020       1.30262986       3.15442509       0.00000000
Si       2.77192272       1.87403420       1.36605949       0.00000000
Si      -2.71445159       0.73555867      -2.29372082       0.00000000
