10
Lattice="16.2900001489832 0.0 0.0 0.0 16.2900001489832 0.0 0.0 0.0 29.41874646731717" Properties=species:S:1:pos:R:3:initial_magmoms:R:1 pbc="T T T"
Si       0.74343814       1.91659997      -1.10167322       0.00000000
Si       1.29627187      -0.61356286       1.89291982       0.00000000
Si       0.62983168      -1.91619272      -1.26150527       0.00000000
Si      -2.29974566       0.60444046      -0.09034497       0.00000000
Si       3.40175439      -0.04215852       0.10455422       0.00000000
H       -0.77459928      -2.87756337       1.68036938       0.00000000
Si      -0.72735665      -3.39481974      -0.07095802       0.00000000
Si       2.93812470       1.47880621      -1.56819570       0.00000000
Si      -2.52886451       0.89834464      -2.47644066       0.00000000
Si       2.85672357      -2.22244472      -0.61558727       0.00000000
