10
Lattice="16.2900001489832 0.0 0.0 0.0 16.2900001489832 0.0 0.0 0.0 29.41874646731717" Properties=species:S:1:pos:R:3:initial_magmoms:R:1 pbc="T T T"
Si      -1.64314462       1.57685572      -0.68548621       0.00000000
Si      -1.02274648      -1.64020754       1.41095250       0.00000000
Si       0.79902451      -0.86861539      -2.13812507       0.00000000
Si       1.85934062       1.24209622       0.99708957       0.00000000
H       -0.55283374       1.96504643       2.32731703       0.00000000
H       -2.72807003      -1.66151486      -1.18698758       0.00000000
Si       3.08521200      -0.74300320      -1.64306641       0.00000000
Si      -3.09472536      -1.89488540       0.26515116       0.00000000
Si       3.13502682       1.56939490      -1.14285946       0.00000000
Si      -0.67727305       3.66039561      -0.09425766       0.00000000
