10
Lattice="16.2900001489832 0.0 0.0 0.0 16.2900001489832 0.0 0.0 0.0 29.41874646731717" Properties=species:S:1:pos:R:3:initial_magmoms:R:1 pbc="T T T"
Si      -1.71038160       0.16303032       1.59643770       0.00000000
Si      -0.08527815      -2.03326895      -1.17271949       0.00000000
Si       1.76280608       0.30990096       1.53983603       0.00000000
Si      -0.22481829       1.63173673      -1.73488232       0.00000000
Si      -1.29124478       2.38843982       2.11897347       0.00000000
Si       1.10376154       2.58787829       1.99159030       0.00000000
Si       2.10940841      -2.47106270      -1.63924197       0.00000000
Si      -1.19272938       0.31374540      -3.53345622       0.00000000
Si       0.88593166      -0.89327845       3.54178172       0.00000000
Si      -3.43344333      -1.34956135       1.14371261       0.00000000
