10
Lattice="10.86 0.0 0.0 0.0 10.86 0.0 0.0 0.0 10.86" Properties=species:S:1:pos:R:3:initial_magmoms:R:1 pbc="T T T"
Si      -1.45459926      -1.11881892      -1.24718412       0.00000000
Si       0.88620858       1.58744964      -1.57478688       0.00000000
Si      -1.44002514       1.67450340       1.15769772       0.00000000
Si      -0.45160224      -1.56613146       1.93802130       0.00000000
Si      -0.29862828      -2.33289090      -2.77557708       0.00000000
Si       2.41637172       0.38210910      -2.77557708       0.00000000
Si      -3.01362828      -2.33289090      -0.06057708       0.00000000
Si       0.96053442      -3.60475980      -1.19424162       0.00000000
Si       2.41637172       3.09710910      -0.06057708       0.00000000
Si       3.64272636      -1.15255008      -1.28935350       0.00000000
