10
Lattice="10.86 0.0 0.0 0.0 10.86 0.0 0.0 0.0 10.86" Properties=species:S:1:pos:R:3:initial_magmoms:R:1 pbc="T T T"
Si       1.36359246       1.17649638       1.31422290       0.00000000
Si      -1.35140754       1.17649638      -1.40077710       0.00000000
Si       1.36359246      -1.53850362      -1.40077710       0.00000000
Si       0.00609246       2.53399638       2.67172290       0.00000000
Si      -2.70890754       2.53399638      -0.04327710       0.00000000
Si       2.72109246       2.53399638      -0.04327710       0.00000000
Si       0.00609246       2.53399638      -2.75827710       0.00000000
Si      -2.77382862      -0.25743630       2.50494588       0.00000000
Si       2.72109246      -0.18100362       2.67172290       0.00000000
Si       2.72109246      -0.18100362      -2.75827710       0.00000000
