10
Lattice="16.28999089631971 0.0 0.0 0.0 16.28999089631971 0.0 0.0 0.0 34.48637585096406" Properties=species:S:1:pos:R:3:initial_magmoms:R:1 pbc="T T T"
Si      -1.35733167      -1.35715021      -1.35676376       0.00000000
Si       1.35751086      -1.35743853       1.35728105       0.00000000
Si      -1.35751086       1.35782851       1.35741900       0.00000000
Si       1.35918873       1.35696514      -1.35724657       0.00000000
Si      -2.71257822      -0.00023132      -2.71535529       0.00000000
Si       2.71474479      -2.71373385       0.00044832       0.00000000
Si       0.00014661       2.71460633       2.71432070       0.00000000
Si       2.71357191      -0.00165995      -2.71576913       0.00000000
Si       2.71464705      -0.00087152       2.71483800       0.00000000
Si      -2.71508688      -2.71459722      -0.00034486       0.00000000
