10
Lattice="16.28999089631971 0.0 0.0 0.0 16.28999089631971 0.0 0.0 0.0 34.48637585096406" Properties=species:S:1:pos:R:3:initial_magmoms:R:1 pbc="T T T"
Si       1.35819504       1.35460961      -1.39383663       0.00000000
Si      -1.35783666      -1.36456213      -1.39445739       0.00000000
Si       1.46018673      -1.26686190       1.50191699       0.00000000
Si      -1.42416954       1.37011769       1.53830014       0.00000000
Si       2.69866656       2.71190870      -0.02324383       0.00000000
Si       2.70536175      -2.70582669      -0.02769258       0.00000000
Si      -2.72588715      -2.69004168      -0.03076186       0.00000000
Si      -2.71521720       2.70974213      -0.00658690       0.00000000
Si       0.00162900       2.70865070      -2.75449735       0.00000000
Si      -2.71210581      -0.00544738      -2.75260060       0.00000000
