10
Lattice="16.28999089631971 0.0 0.0 0.0 16.28999089631971 0.0 0.0 0.0 34.48637585096406" Properties=species:S:1:pos:R:3:initial_magmoms:R:1 pbc="T T T"
Si      -1.14736497      -1.73893797       1.24154471       0.00000000
Si      -1.37421463       1.32967353      -1.50533115       0.00000000
Si       1.33211475      -1.34999793      -1.52867844       0.00000000
Si       1.03744494       1.83716405       1.65789896       0.00000000
Si       2.63383236       2.71016144       0.04038357       0.00000000
Si      -2.75598197      -0.69193080       2.59354935       0.00000000
Si       2.90541924      -2.52250326      -0.27840867       0.00000000
Si      -2.93007320       2.54734289      -0.06931765       0.00000000
Si      -0.01397682       2.69514206      -2.88937364       0.00000000
Si       2.70016524      -0.02451839      -2.89237396       0.00000000
