10
Lattice="16.28999089631971 0.0 0.0 0.0 16.28999089631971 0.0 0.0 0.0 34.48637585096406" Properties=species:S:1:pos:R:3:initial_magmoms:R:1 pbc="T T T"
Si       0.91261467       1.88226063      -1.05047767       0.00000000
Si       1.30885263      -1.32434442       1.44097264       0.00000000
Si      -1.42237764       1.36578618       1.44021049       0.00000000
Si      -0.79638552      -1.95589143      -1.34892297       0.00000000
Si       2.68745904      -2.67415011      -0.00775944       0.00000000
Si      -2.77257429      -2.62130535      -0.08242593       0.00000000
Si       2.64922641       0.02681334       2.81580726       0.00000000
Si      -0.06584418      -2.68742646       2.80846166       0.00000000
Si      -2.64474666       2.86599744       0.07404919       0.00000000
Si      -0.06538806       2.74302423       2.80859961       0.00000000
