10
Lattice="16.28999089631971 0.0 0.0 0.0 16.28999089631971 0.0 0.0 0.0 34.48637585096406" Properties=species:S:1:pos:R:3:initial_magmoms:R:1 pbc="T T T"
Si       0.72019719      -1.94137704      -1.21057593       0.00000000
Si      -1.91313018       0.80788626      -1.24757983       0.00000000
Si      -0.98411148       1.26307773       1.82702024       0.00000000
Si       2.30819526       1.22696280       0.43225248       0.00000000
Si       0.74393172       3.03433830       0.51291615       0.00000000
Si       1.20223458      -2.95477794       0.86812602       0.00000000
Si      -0.59059395       1.91329308      -2.83147099       0.00000000
Si       2.23171371      -0.78455898      -2.62179370       0.00000000
Si      -3.40219908       0.86553657       2.07756390       0.00000000
Si       3.86125128       0.30988467      -1.28961875       0.00000000
