10
Lattice="16.28999089631971 0.0 0.0 0.0 16.28999089631971 0.0 0.0 0.0 34.48637585096406" Properties=species:S:1:pos:R:3:initial_magmoms:R:1 pbc="T T T"
Si      -1.27954692      -1.11648402       1.65148449       0.00000000
Si       1.98889497       0.99483030       0.84022653       0.00000000
Si      -1.27663101       1.91800089      -0.60330500       0.00000000
Si       0.49480875      -2.11815612      -1.09273592       0.00000000
Si      -1.12466160       1.17641493      -2.86850937       0.00000000
Si      -2.25127800      -0.87579927      -2.31745127       0.00000000
Si      -0.81621045      -3.21896916       0.62161727       0.00000000
Si       2.77869933      -2.23660071      -0.34379487       0.00000000
Si      -0.14978655       3.52688274       0.74494062       0.00000000
Si       1.53634248       0.69670701       3.21471829       0.00000000
