10
Lattice="16.28999089631971 0.0 0.0 0.0 16.28999089631971 0.0 0.0 0.0 34.48637585096406" Properties=species:S:1:pos:R:3:initial_magmoms:R:1 pbc="T T T"
Si      -0.15146442      -2.05853472      -1.13653364       0.00000000
Si       1.63444086      -1.12739832       1.33993440       0.00000000
Si      -2.16681435       0.09034434       1.09725363       0.00000000
Si       1.30292307       2.04336873      -1.03404007       0.00000000
Si      -1.96226082       2.25828270       1.95041256       0.00000000
Si      -0.73287081      -1.25973828      -3.29020901       0.00000000
Si       3.69769968      -0.33627447       0.58078538       0.00000000
Si      -3.93778170      -0.06551838      -0.42780373       0.00000000
Si       1.36202319      -1.02126897       3.65517853       0.00000000
Si       2.55575439       0.94734495      -2.99848860       0.00000000
