10
Lattice="16.28999089631971 0.0 0.0 0.0 16.28999089631971 0.0 0.0 0.0 34.48637585096406" Properties=species:S:1:pos:R:3:initial_magmoms:R:1 pbc="T T T"
Si       2.08345842      -0.36445617      -0.92830478       0.00000000
Si      -0.78213177       2.14920486      -0.51798565       0.00000000
Si      -1.12684446      -1.60888185      -1.34824562       0.00000000
Si       0.07954407      -0.81177957       2.27261895       0.00000000
Si       2.13868152      -2.53205244       0.09528591       0.00000000
Si       0.14978655      -3.52688274      -0.74494062       0.00000000
Si       1.67141916       0.03052746      -3.35452614       0.00000000
Si      -2.04398775      -1.72226025       2.79867442       0.00000000
Si       3.72997017       1.07566128       0.09280289       0.00000000
Si       0.91263096       3.83559453      -0.21671251       0.00000000
