10
Lattice="16.28999089631971 0.0 0.0 0.0 16.28999089631971 0.0 0.0 0.0 34.48637585096406" Properties=species:S:1:pos:R:3:initial_magmoms:R:1 pbc="T T T"
Si      -0.33314679       0.95381208       2.09235856       0.00000000
Si      -1.13334417      -2.05716636       0.25561316       0.00000000
Si      -0.96422139       1.41859836      -1.63644842       0.00000000
Si       1.28409183      -2.02057902       0.35186469       0.00000000
Si       0.27176607      -1.01566521       3.29683040       0.00000000
Si       1.23818661       2.91167460       1.72028485       0.00000000
Si      -3.25840725       1.20668175      -1.22016315       0.00000000
Si       2.39920749      -1.62823437       2.39366620       0.00000000
Si       2.75760378      -2.22065280      -1.42032218       0.00000000
Si       1.71846468       3.37108518      -0.58968287       0.00000000
