10
Lattice="16.28999089631971 0.0 0.0 0.0 16.28999089631971 0.0 0.0 0.0 34.48637585096406" Properties=species:S:1:pos:R:3:initial_magmoms:R:1 pbc="T T T"
Si      -0.25611138      -0.36369054       2.27424916       0.00000000
Si      -1.43109279      -1.68057414      -0.79060061       0.00000000
Si      -0.60491286       1.96947729      -1.20447184       0.00000000
Si       2.12744142      -0.61256916      -0.90316420       0.00000000
Si       1.01232576      -1.00491381      -2.94496571       0.00000000
Si      -0.27176607       1.01566521      -3.29683040       0.00000000
Si      -1.40511024      -1.04150115      -3.04121724       0.00000000
Si       1.40273190      -2.22804846       2.33900530       0.00000000
Si       2.94342381      -2.29977333       0.56316283       0.00000000
Si       0.57334284       1.49452605       3.43833295       0.00000000
