10
Lattice="16.28999089631971 0.0 0.0 0.0 16.28999089631971 0.0 0.0 0.0 34.48637585096406" Properties=species:S:1:pos:R:3:initial_magmoms:R:1 pbc="T T T"
Si      -1.34449515      -1.36036161       1.38749803       0.00000000
Si       1.36948401       1.35718506       1.38104908       0.00000000
Si       1.51944975      -1.21370274      -1.38011450       0.00000000
Si      -1.33411842       1.33540533      -1.61369085       0.00000000
Si       2.41378704       0.60763329      -2.75926479       0.00000000
Si       0.62851707       2.37166110      -2.88165701       0.00000000
Si      -2.67732666       2.70037358       0.00681796       0.00000000
Si      -2.68812693      -2.69065188       0.00631791       0.00000000
Si       2.74103685      -2.69705385       0.02792019       0.00000000
Si      -2.69835705      -0.00384444       2.74239952       0.00000000
