10
Lattice="16.28999089631971 0.0 0.0 0.0 16.28999089631971 0.0 0.0 0.0 34.48637585096406" Properties=species:S:1:pos:R:3:initial_magmoms:R:1 pbc="T T T"
Si      -1.35791811      -1.35638685      -1.35683273       0.00000000
Si       1.35734796      -1.35682668       1.35703965       0.00000000
Si      -1.35729909       1.35811359       1.35676376       0.00000000
Si       1.35998694       1.35923760      -1.35903986       0.00000000
Si       0.00094482       2.71399545       2.71369995       0.00000000
Si      -2.71606428      -0.00009774      -2.71266535       0.00000000
Si      -2.71511946      -0.00004887       2.71411378       0.00000000
Si       0.00029322      -2.71482624       2.71442416       0.00000000
Si       2.71515204       0.00179190       2.71438967       0.00000000
Si      -2.71528236      -2.71448415      -0.00058627       0.00000000
