10
Lattice="16.28999089631971 0.0 0.0 0.0 16.28999089631971 0.0 0.0 0.0 34.48637585096406" Properties=species:S:1:pos:R:3:initial_magmoms:R:1 pbc="T T T"
Si       1.57330449      -1.17250533       1.25026977       0.00000000
Si       1.36805049       1.32547954      -1.36369552       0.00000000
Si      -1.34638479      -1.39144293      -1.36286785       0.00000000
Si      -1.33211475       1.34999793       1.52867844       0.00000000
Si      -2.47947972      -0.38894004       2.77022315       0.00000000
Si       0.44641116      -2.83493241       2.47650252       0.00000000
Si      -2.70632938       2.67967146       0.02334729       0.00000000
Si       0.01378134       2.68459430      -2.72183874       0.00000000
Si       2.72588715       2.69004168       0.03076186       0.00000000
Si      -2.70239371      -0.03086955      -2.72318370       0.00000000
