10
Lattice="16.28999089631971 0.0 0.0 0.0 16.28999089631971 0.0 0.0 0.0 34.48637585096406" Properties=species:S:1:pos:R:3:initial_magmoms:R:1 pbc="T T T"
Si       1.74003264      -0.62058384       1.41321799       0.00000000
Si      -0.78452640       2.19529646       0.43318361       0.00000000
Si      -1.74166164      -1.32481683       0.99755347       0.00000000
Si       1.12526433      -1.22375367      -1.90671830       0.00000000
Si      -2.03963832       1.99119905      -1.67114173       0.00000000
Si       1.29466404       3.36151385       0.16274130       0.00000000
Si       2.29074867      -2.83745736      -0.08997500       0.00000000
Si      -3.20766390       0.16432376       2.15353743       0.00000000
Si       0.95821038      -1.41123528       3.47564236       0.00000000
Si      -2.58984936      -2.91258684      -0.70393630       0.00000000
