10
Lattice="16.28999089631971 0.0 0.0 0.0 16.28999089631971 0.0 0.0 0.0 34.48637585096406" Properties=species:S:1:pos:R:3:initial_magmoms:R:1 pbc="T T T"
Si      -1.74003264       0.62058384      -1.41321799       0.00000000
Si      -0.78182226      -0.79065144       2.06242437       0.00000000
Si       1.48377465       1.72130633       0.71379941       0.00000000
Si       0.55071603      -2.21687352      -1.50319299       0.00000000
Si      -0.61476831      -0.60316983      -3.31993629       0.00000000
Si      -3.48169428      -0.70423299      -0.41566452       0.00000000
Si       1.29207393      -1.24958961       3.11422494       0.00000000
Si       2.81271285      -2.28258738      -0.15739591       0.00000000
Si       1.64734254       2.94727544      -1.34265882       0.00000000
Si      -2.71446786      -2.00195955       1.48125964       0.00000000
