10
Lattice="16.28999089631971 0.0 0.0 0.0 16.28999089631971 0.0 0.0 0.0 34.48637585096406" Properties=species:S:1:pos:R:3:initial_magmoms:R:1 pbc="T T T"
Si       1.35723393      -1.35629532      -1.35683273       0.00000000
Si       1.35713619       1.35656701       1.35755694       0.00000000
Si      -1.35663120      -1.35862479       1.35690170       0.00000000
Si      -1.35751086       1.35743853      -1.35728105       0.00000000
Si       2.71497285      -0.00068825      -2.71204460       0.00000000
Si      -2.71484253       0.00028832      -2.71404481       0.00000000
Si       0.00167787       2.71440367      -2.71452762       0.00000000
Si       0.00024435      -2.71554921       2.71366546       0.00000000
Si       0.00241092      -2.71338264      -2.71583810       0.00000000
Si      -2.71487511      -2.71450665      -0.00003449       0.00000000
