10
Lattice="16.28999089631971 0.0 0.0 0.0 16.28999089631971 0.0 0.0 0.0 34.48637585096406" Properties=species:S:1:pos:R:3:initial_magmoms:R:1 pbc="T T T"
Si       1.35607734       1.35811359       1.35721208       0.00000000
Si       1.35438318      -1.35862510      -1.35852256       0.00000000
Si      -1.35918873      -1.35696514       1.35724657       0.00000000
Si      -1.36044306       1.35726651      -1.36293682       0.00000000
Si       2.71305063       0.00086337       2.71452762       0.00000000
Si       2.71329498      -2.71509193       0.00248302       0.00000000
Si       0.00382815      -2.70745406      -2.72110073       0.00000000
Si      -0.00167787      -2.71440367       2.71452762       0.00000000
Si      -0.00172674       2.71531494       2.71452762       0.00000000
Si      -2.71652040      -2.71411536       0.00048281       0.00000000
