10
Lattice="16.28999089631971 0.0 0.0 0.0 16.28999089631971 0.0 0.0 0.0 34.48637585096406" Properties=species:S:1:pos:R:3:initial_magmoms:R:1 pbc="T T T"
Si       1.36332639       1.34338743      -1.37728316       0.00000000
Si      -1.35395964      -1.37318184      -1.37135150       0.00000000
Si       1.27169514      -1.42757415       1.41107983       0.00000000
Si      -1.37803626       1.30882005       1.48263910       0.00000000
Si      -0.71773740      -2.15669826       2.94975932       0.00000000
Si      -2.45485413      -0.30661038       2.85395611       0.00000000
Si       2.71296918       2.67496461      -0.01286343       0.00000000
Si      -2.72101644       2.69796609       0.01203575       0.00000000
Si       0.00415395       2.69860140      -2.73249503       0.00000000
Si      -2.71223613      -0.01544292      -2.73183979       0.00000000
