10
Lattice="16.28999089631971 0.0 0.0 0.0 16.28999089631971 0.0 0.0 0.0 34.48637585096406" Properties=species:S:1:pos:R:3:initial_magmoms:R:1 pbc="T T T"
Si      -0.31071546      -1.02436407       2.17819520       0.00000000
Si      -0.65653587      -1.83373272      -1.49898565       0.00000000
Si      -1.73711673       1.85008788      -0.09580321       0.00000000
Si       1.98943254       0.72912411      -1.53867949       0.00000000
Si      -2.01121227      -0.57010113      -2.95100083       0.00000000
Si       1.91062152      -1.79637975       2.56830530       0.00000000
Si       0.71773740       2.15669826      -2.94975932       0.00000000
Si      -3.36665430       0.75564423      -1.42797816       0.00000000
Si      -1.63769886      -3.40445036      -0.08666431       0.00000000
Si      -0.66029886       3.46551831      -1.46712022       0.00000000
