10
Lattice="16.28999089631971 0.0 0.0 0.0 16.28999089631971 0.0 0.0 0.0 34.48637585096406" Properties=species:S:1:pos:R:3:initial_magmoms:R:1 pbc="T T T"
Si      -1.35259195      -1.36971207      -1.33761001       0.00000000
Si      -1.35694138       1.35861858       1.36338514       0.00000000
Si       1.35891832      -1.35817875       1.36269542       0.00000000
Si       1.37312320       1.37692854      -1.37657619       0.00000000
Si      -0.01747754      -2.72963874      -2.66357397       0.00000000
Si      -2.58763459      -0.06476904      -2.80350252       0.00000000
Si      -2.71039603      -2.71340575       0.00682831       0.00000000
Si      -2.71358887       2.71521720       0.00451772       0.00000000
Si       2.71602193       2.71419093       0.00648344       0.00000000
Si      -2.71233454       0.00014661       2.71990750       0.00000000
