10
Lattice="16.28999089631971 0.0 0.0 0.0 16.28999089631971 0.0 0.0 0.0 34.48637585096406" Properties=species:S:1:pos:R:3:initial_magmoms:R:1 pbc="T T T"
Si       1.35589815      -1.35949824      -1.36107456       0.00000000
Si      -1.35930276       1.35896067      -1.36052277       0.00000000
Si       1.35736425       1.34895861       1.37362760       0.00000000
Si      -1.36927224      -1.36013355       1.38345623       0.00000000
Si      -0.11637576       2.65732254       2.71490697       0.00000000
Si       2.71608057       2.71357191      -0.00189675       0.00000000
Si       2.71507059      -2.71471221      -0.00586269       0.00000000
Si      -2.71568961      -2.71477737       0.00027589       0.00000000
Si      -2.71663443       2.71423980      -0.00444874       0.00000000
Si       2.71314837      -0.00048870      -2.71776934       0.00000000
