10
Lattice="16.28999089631971 0.0 0.0 0.0 16.28999089631971 0.0 0.0 0.0 34.48637585096406" Properties=species:S:1:pos:R:3:initial_magmoms:R:1 pbc="T T T"
Si      -1.25154441       1.67032773       1.07200959       0.00000000
Si      -1.35915615      -1.31263191      -1.47263804       0.00000000
Si       1.32704856       1.28218590      -1.56023349       0.00000000
Si       0.61346511      -1.06733709       2.21150906       0.00000000
Si       1.94628033       2.59100595       1.68514321       0.00000000
Si       1.54015434       0.83709423       3.28293238       0.00000000
Si       3.15983646       2.08518516      -0.32124077       0.00000000
Si      -2.43597402      -2.92806234      -0.10132103       0.00000000
Si       0.01888011      -2.62145196      -2.95527714       0.00000000
Si      -2.70213633       0.07651413      -2.94324139       0.00000000
