10
Lattice="16.28999089631971 0.0 0.0 0.0 16.28999089631971 0.0 0.0 0.0 34.48637585096406" Properties=species:S:1:pos:R:3:initial_magmoms:R:1 pbc="T T T"
Si      -0.48988917      -2.06863452       0.93637460       0.00000000
Si       1.52464626      -0.35218980      -1.72797531       0.00000000
Si       0.55786734       1.33729497       1.85623022       0.00000000
Si      -1.71963756       0.32936751      -1.59237481       0.00000000
Si       0.59795703      -2.25662112      -2.79939864       0.00000000
Si      -1.09763649      -3.37175307      -0.91540687       0.00000000
Si      -1.85241735       2.64329685      -1.86140318       0.00000000
Si       0.77833620       3.50049294       1.03686796       0.00000000
Si       1.41555213      -2.87932266       1.99817622       0.00000000
Si      -1.29152007       1.33139799       3.35383641       0.00000000
