10
Lattice="16.28999089631971 0.0 0.0 0.0 16.28999089631971 0.0 0.0 0.0 34.48637585096406" Properties=species:S:1:pos:R:3:initial_magmoms:R:1 pbc="T T T"
Si      -0.13277979       2.31392934      -0.26902837       0.00000000
Si      -2.06325882      -0.79112385       0.75914902       0.00000000
Si       1.71963756      -0.32936751       1.59237481       0.00000000
Si       0.45258507       0.15167619      -2.34652330       0.00000000
Si       3.24428382      -0.68155731      -0.13560051       0.00000000
Si       1.64983491       2.23954920      -1.89419974       0.00000000
Si      -1.68296877      -3.14333469       0.55592069       0.00000000
Si       2.31759459      -2.58598863      -1.20702383       0.00000000
Si       1.22974839      -2.39800203       2.52874941       0.00000000
Si      -2.39477661       2.37964320      -1.61482545       0.00000000
