10
Lattice="16.28999089631971 0.0 0.0 0.0 16.28999089631971 0.0 0.0 0.0 34.48637585096406" Properties=species:S:1:pos:R:3:initial_magmoms:R:1 pbc="T T T"
Si      -1.85267799       0.91600299      -0.99693271       0.00000000
Si       0.08646732      -2.35338372      -0.07797374       0.00000000
Si       0.49099689       0.93489939       2.12122368       0.00000000
Si       1.90495260       0.21861180      -1.40711389       0.00000000
Si       2.05868133      -2.08811736       1.25596002       0.00000000
Si       3.52282653      -0.49288653       0.12439243       0.00000000
Si       1.25797896      -1.01349864       3.22299503       0.00000000
Si      -1.22233644       2.99571471      -1.87054207       0.00000000
Si       1.48473576      -1.21500594      -3.22620226       0.00000000
Si      -2.34787770      -0.25290225      -2.92861916       0.00000000
