10
Lattice="16.28999089631971 0.0 0.0 0.0 16.28999089631971 0.0 0.0 0.0 34.48637585096406" Properties=species:S:1:pos:R:3:initial_magmoms:R:1 pbc="T T T"
Si       0.38159325       0.25972776      -2.36880151       0.00000000
Si       0.79291575       2.34598806      -0.06824858       0.00000000
Si       1.86359229      -1.55292570       0.64034338       0.00000000
Si      -2.29035771      -1.08537012      -0.65213773       0.00000000
Si      -1.98148302      -0.07754040       2.36232983       0.00000000
Si       2.34644418       1.78297308      -1.92147848       0.00000000
Si      -1.31973435      -3.04901559      -1.49984781       0.00000000
Si       0.65759472      -2.91827205       2.10127127       0.00000000
Si      -1.25806041       1.76026482      -3.01638704       0.00000000
Si      -3.10634010       0.60183405      -2.11846477       0.00000000
