10
Lattice="16.28999089631971 0.0 0.0 0.0 16.28999089631971 0.0 0.0 0.0 34.48637585096406" Properties=species:S:1:pos:R:3:initial_magmoms:R:1 pbc="T T T"
Si      -1.34592867      -1.33043688      -1.35733623       0.00000000
Si       1.35700587      -1.34917038       1.35669478       0.00000000
Si      -1.35540945       1.36559070       1.35586711       0.00000000
Si       1.37572308       1.36842516      -1.39321588       0.00000000
Si       0.11143989      -2.63355543      -2.62607346       0.00000000
Si      -2.56751577       0.15291423      -2.76537091       0.00000000
Si       2.71042794      -2.70730026      -0.00296583       0.00000000
Si       0.00001629      -2.70844056       2.71452762       0.00000000
Si      -2.71612944      -2.70889668      -0.00562128       0.00000000
Si       2.71485882       0.00581553       2.71473454       0.00000000
