10
Lattice="16.28999089631971 0.0 0.0 0.0 16.28999089631971 0.0 0.0 0.0 34.48637585096406" Properties=species:S:1:pos:R:3:initial_magmoms:R:1 pbc="T T T"
Si       1.35055503       1.34882896       1.36257816       0.00000000
Si      -1.36516716      -1.36212093       1.35971579       0.00000000
Si       1.37300265      -1.30737024      -1.41093844       0.00000000
Si      -1.33271748       1.36882168      -1.42100157       0.00000000
Si      -0.32086413      -2.11167270      -2.78059807       0.00000000
Si      -2.10613410      -0.34764489      -2.90299029       0.00000000
Si       2.57427612       0.18981990      -2.77777019       0.00000000
Si       2.71049310       2.71118447      -0.00601098       0.00000000
Si      -0.00382815       2.70745406       2.72110073       0.00000000
Si       2.70946683      -0.00763787       2.72358375       0.00000000
