10
Lattice="16.28999089631971 0.0 0.0 0.0 16.28999089631971 0.0 0.0 0.0 34.48637585096406" Properties=species:S:1:pos:R:3:initial_magmoms:R:1 pbc="T T T"
Si       0.13986594       1.96226082      -1.25064912       0.00000000
Si       2.22140214      -0.38263581       0.69296962       0.00000000
Si      -1.04977647       0.06032187       2.15915871       0.00000000
Si      -0.54239184      -2.06966079      -1.17884844       0.00000000
Si       1.59106059      -2.46234753       1.56657898       0.00000000
Si      -0.53815644      -2.23925598       2.56716725       0.00000000
Si      -0.33910893       3.65831046       0.33031069       0.00000000
Si       1.09586088      -3.63125277      -0.36510747       0.00000000
Si      -1.93403025       2.42119899      -2.30244968       0.00000000
Si       2.13649866       2.14022907      -2.53492247       0.00000000
