10
Lattice="16.28999089631971 0.0 0.0 0.0 16.28999089631971 0.0 0.0 0.0 34.48637585096406" Properties=species:S:1:pos:R:3:initial_magmoms:R:1 pbc="T T T"
Si       1.13824746       0.01394424      -2.00886700       0.00000000
Si      -2.10168693       0.72974313      -0.67834739       0.00000000
Si      -0.08039115      -2.14979130       0.97106791       0.00000000
Si       0.77032152       2.03800932       1.02503912       0.00000000
Si       1.06982946       2.32275852      -2.37580225       0.00000000
Si      -1.31168709       2.56740174      -2.00321123       0.00000000
Si       1.89644922       1.11922074       2.85343882       0.00000000
Si      -2.94241383       2.02000887       1.21340381       0.00000000
Si      -0.41339133      -1.82087991       3.29883061       0.00000000
Si       1.88099001      -3.35272635       0.29027199       0.00000000
