10
Lattice="16.28999089631971 0.0 0.0 0.0 16.28999089631971 0.0 0.0 0.0 34.48637585096406" Properties=species:S:1:pos:R:3:initial_magmoms:R:1 pbc="T T T"
Si       1.43403218      -1.12175288      -1.46175797       0.00000000
Si       1.61862557       1.17952143       1.23462777       0.00000000
Si      -0.76447341       1.67022999      -1.63160347       0.00000000
Si      -1.37828061      -1.82046356       1.27505962       0.00000000
Si      -2.43382374      -0.17365873       2.55299093       0.00000000
Si       0.15985377      -1.07109098      -3.39261675       0.00000000
Si       0.28351116       2.53944810       2.56059173       0.00000000
Si      -2.43379116       2.66940972      -0.25228561       0.00000000
Si       2.34519704       3.00894219      -0.16136626       0.00000000
Si      -2.15013339      -0.62489159      -3.13058912       0.00000000
