10
Lattice="16.28999089631971 0.0 0.0 0.0 16.28999089631971 0.0 0.0 0.0 34.48637585096406" Properties=species:S:1:pos:R:3:initial_magmoms:R:1 pbc="T T T"
Si       1.35511623       1.35791451       1.35724657       0.00000000
Si       1.35775521      -1.35711766      -1.35759143       0.00000000
Si      -1.35860229       1.35746002      -1.35676376       0.00000000
Si      -1.35754344      -1.35723169       1.35821219       0.00000000
Si      -2.71505430      -0.00045174      -2.71235498       0.00000000
Si       2.71426707       0.00148971      -2.71466556       0.00000000
Si      -0.00047241       2.71521034      -2.71401032       0.00000000
Si      -2.71500543      -2.71484029      -0.00013795       0.00000000
Si       2.71511962       2.71491712      -0.00020692       0.00000000
Si       0.00104256       2.71739320       2.71276881       0.00000000
