10
Lattice="16.28999089631971 0.0 0.0 0.0 16.28999089631971 0.0 0.0 0.0 34.48637585096406" Properties=species:S:1:pos:R:3:initial_magmoms:R:1 pbc="T T T"
Si      -1.35407367       1.35947869       1.35552225       0.00000000
Si      -1.35511623      -1.35791451      -1.35724657       0.00000000
Si       1.36000339       1.35700261      -1.35745348       0.00000000
Si       1.36298430      -1.35780338       1.36166083       0.00000000
Si      -2.71251306       2.71220029       0.00044832       0.00000000
Si      -2.71371852      -0.00045449      -2.71401032       0.00000000
Si      -2.71265967      -2.71514619       0.00096562       0.00000000
Si      -0.01739772       2.69840266       2.72939126       0.00000000
Si       0.00291591       2.71457863      -2.71501043       0.00000000
Si       0.00263898      -2.71503216      -2.71483800       0.00000000
