10
Lattice="16.28999089631971 0.0 0.0 0.0 16.28999089631971 0.0 0.0 0.0 34.48637585096406" Properties=species:S:1:pos:R:3:initial_magmoms:R:1 pbc="T T T"
Si      -1.35729146      -1.35710361      -1.35693619       0.00000000
Si       1.35760697       1.35801585      -1.35690170       0.00000000
Si       1.35658070      -1.35329175       1.36304028       0.00000000
Si      -1.35610245       1.35832536       1.36297131       0.00000000
Si      -0.00012380      -2.71418930      -2.71421724       0.00000000
Si      -2.71437894       0.00047241      -2.71449313       0.00000000
Si       2.71516670       0.00076563      -2.71449313       0.00000000
Si       2.71645361      -2.71383744       0.00189675       0.00000000
Si      -0.00029159       2.71573848      -2.71459659       0.00000000
Si       2.71440107       2.71666701       0.00037935       0.00000000
