10
Lattice="16.28999089631971 0.0 0.0 0.0 16.28999089631971 0.0 0.0 0.0 34.48637585096406" Properties=species:S:1:pos:R:3:initial_magmoms:R:1 pbc="T T T"
Si      -1.23452136      -1.19067912      -1.61672220       0.00000000
Si       1.28731725       1.50872767      -1.54557677       0.00000000
Si       1.46140848      -1.73054601       1.11729023       0.00000000
Si      -2.75041989      -0.65456804       0.99375996       0.00000000
Si      -1.39409820       1.78705861       2.52188662       0.00000000
Si       2.36053896      -0.15047236       2.58734179       0.00000000
Si      -2.62917342      -2.58458184      -0.29816937       0.00000000
Si      -1.74316032      -0.47064253       3.24523875       0.00000000
Si       0.14600727      -2.44065969      -3.00483409       0.00000000
Si      -2.58009165       0.29823569      -2.98383188       0.00000000
