10
Lattice="16.28999089631971 0.0 0.0 0.0 16.28999089631971 0.0 0.0 0.0 34.48637585096406" Properties=species:S:1:pos:R:3:initial_magmoms:R:1 pbc="T T T"
Si       0.26541297       1.38841299       1.88792321       0.00000000
Si      -2.22133698       0.77201568      -0.39011010       0.00000000
Si      -0.34906212      -2.25770115       0.72335214       0.00000000
Si      -1.35632169      -2.44162665      -1.52812665       0.00000000
Si       1.39409820      -1.78705861      -2.52188662       0.00000000
Si       1.90189008      -2.59231404       1.52712655       0.00000000
Si      -2.27556639       2.02197996       1.87326650       0.00000000
Si      -1.91062152       1.79637975      -2.56830530       0.00000000
Si       2.00814975       2.94757776       1.39611273       0.00000000
Si       0.83533491       0.07636752       3.75387860       0.00000000
