10
Lattice="16.28999089631971 0.0 0.0 0.0 16.28999089631971 0.0 0.0 0.0 34.48637585096406" Properties=species:S:1:pos:R:3:initial_magmoms:R:1 pbc="T T T"
Si      -0.39623796      -2.29967789       0.51867538       0.00000000
Si       0.92805759       1.58976228       1.55692279       0.00000000
Si      -2.25095220       0.33461289      -0.80377441       0.00000000
Si       1.85274708       0.65478307      -1.46167137       0.00000000
Si       0.95361660      -0.92529059      -2.93172294       0.00000000
Si       0.31074804      -2.93412452      -1.63748301       0.00000000
Si      -1.90189008       2.59231404      -1.52712655       0.00000000
Si       3.57901793      -0.22307102      -0.04269416       0.00000000
Si      -1.06655517       2.66868156       2.22675205       0.00000000
Si       1.71975063       0.09147649       3.21154555       0.00000000
