10
Lattice="16.28999089631971 0.0 0.0 0.0 16.28999089631971 0.0 0.0 0.0 34.48637585096406" Properties=species:S:1:pos:R:3:initial_magmoms:R:1 pbc="T T T"
Si      -1.22681619       1.96440458       0.01882957       0.00000000
Si      -0.82793925      -0.84258885       2.04300853       0.00000000
Si      -0.73925649      -1.62728696      -1.57106222       0.00000000
Si       2.15460404      -0.33617999      -0.98506939       0.00000000
Si       1.09424721      -1.08436340      -2.99345358       0.00000000
Si      -0.28872396      -3.42827678      -0.09642396       0.00000000
Si       0.41035375      -2.78104250       2.09591066       0.00000000
Si      -3.07247319      -1.15435013       1.32958848       0.00000000
Si      -3.19718943       1.25686472       1.23385424       0.00000000
Si      -1.33955928       2.90606432      -2.13081090       0.00000000
