10
Lattice="16.28999089631971 0.0 0.0 0.0 16.28999089631971 0.0 0.0 0.0 34.48637585096406" Properties=species:S:1:pos:R:3:initial_magmoms:R:1 pbc="T T T"
Si       1.35843939      -1.35272160       1.35507392       0.00000000
Si      -1.35790182      -1.35461124      -1.35800527       0.00000000
Si       1.35726651       1.35977517      -1.35783284       0.00000000
Si      -1.35796698       1.35904212       1.36017791       0.00000000
Si       2.69511534      -0.01379763       2.72894293       0.00000000
Si       2.71251306      -2.71220029      -0.00044832       0.00000000
Si      -0.00120546      -2.71265478      -2.71445865       0.00000000
Si      -2.71549413      -2.71331127      -0.00044832       0.00000000
Si      -2.71487511       0.00263898      -2.71532081       0.00000000
Si       2.71241532       2.71780731      -0.00068973       0.00000000
