10
Lattice="16.28999089631971 0.0 0.0 0.0 16.28999089631971 0.0 0.0 0.0 34.48637585096406" Properties=species:S:1:pos:R:3:initial_magmoms:R:1 pbc="T T T"
Si      -1.33667595      -1.33892397      -1.37386901       0.00000000
Si       1.37859012       1.37402892      -1.36693724       0.00000000
Si       1.17517689      -1.48538736       1.45318772       0.00000000
Si      -1.42742754       1.31844744       1.41366631       0.00000000
Si       2.13813159       0.29235663       2.69462897       0.00000000
Si       0.41376600       2.09756556       2.75735972       0.00000000
Si      -2.69223201      -2.69587934       0.01493261       0.00000000
Si      -2.69511534       0.01379763      -2.72894293       0.00000000
Si       0.01739772      -2.69840266      -2.72939126       0.00000000
Si       2.73103546      -2.70305671       0.01717422       0.00000000
