10
Lattice="16.28999089631971 0.0 0.0 0.0 16.28999089631971 0.0 0.0 0.0 34.48637585096406" Properties=species:S:1:pos:R:3:initial_magmoms:R:1 pbc="T T T"
Si      -0.41919057       0.88492167       2.16174519       0.00000000
Si      -1.84119354      -0.77911812      -1.34369341       0.00000000
Si       0.91944018       1.85473053      -1.37273096       0.00000000
Si       1.72436559      -1.80520893      -0.06273075       0.00000000
Si      -0.41376600      -2.09756556      -2.75735972       0.00000000
Si       1.72109293       2.20240800       2.34272979       0.00000000
Si       2.33527317       0.63205200      -2.76436046       0.00000000
Si       0.76141089      -3.58295292      -1.30417200       0.00000000
Si       3.62619377      -0.69657669      -1.27565176       0.00000000
Si       1.84729319       3.65177817      -0.14063552       0.00000000
