10
Lattice="16.28999089631971 0.0 0.0 0.0 16.28999089631971 0.0 0.0 0.0 34.48637585096406" Properties=species:S:1:pos:R:3:initial_magmoms:R:1 pbc="T T T"
Si       2.11445407      -0.89608032       0.40569795       0.00000000
Si      -0.25145244       2.21162814      -0.75732124       0.00000000
Si      -0.84605373      -1.44946791      -1.68183252       0.00000000
Si      -1.06393248       0.04031775       2.18881701       0.00000000
Si      -2.20915206       2.06940015      -2.04925057       0.00000000
Si       1.70994568      -2.95782417       1.57975279       0.00000000
Si      -0.02353905      -0.85761963      -3.74194630       0.00000000
Si       3.87639188       0.13859532      -0.78287566       0.00000000
Si      -0.37496322      -3.74479407      -1.35690170       0.00000000
Si       1.03848165      -0.73647090       3.79440039       0.00000000
