10
Lattice="16.28999089631971 0.0 0.0 0.0 16.28999089631971 0.0 0.0 0.0 34.48637585096406" Properties=species:S:1:pos:R:3:initial_magmoms:R:1 pbc="T T T"
Si       0.48610500      -1.54293993       1.74187333       0.00000000
Si       1.12768665       2.14755957      -0.11839179       0.00000000
Si      -2.24296588       0.89301780       0.57464680       0.00000000
Si       0.31100379      -1.75617603      -1.80501792       0.00000000
Si      -0.61001815       3.45247002      -1.24202752       0.00000000
Si      -0.60674548      -0.55514691      -3.64748807       0.00000000
Si      -2.75030164       2.13498369      -1.42301212       0.00000000
Si       0.96007884      -0.29431143       3.69949355       0.00000000
Si      -2.02365361       2.22078312       2.58647963       0.00000000
Si       2.45440941      -2.88059328       1.20374762       0.00000000
