10
Lattice="16.28999089631971 0.0 0.0 0.0 16.28999089631971 0.0 0.0 0.0 34.48637585096406" Properties=species:S:1:pos:R:3:initial_magmoms:R:1 pbc="T T T"
Si       1.47812202       1.59801642       0.76728781       0.00000000
Si      -2.00057490       1.16719479      -0.16081006       0.00000000
Si       1.21355613      -0.50582079      -2.00638398       0.00000000
Si      -0.40612599      -1.75391172       1.59778917       0.00000000
Si      -3.19782474      -0.92067822      -0.61313362       0.00000000
Si       1.86136056      -2.13820911       1.93751465       0.00000000
Si       2.98158381      -0.11086974       1.70742142       0.00000000
Si      -0.61923177      -1.30882005      -3.24537670       0.00000000
Si      -1.94628033      -2.59100595      -1.68514321       0.00000000
Si       0.77113602       2.23246305       2.92344620       0.00000000
