10
Lattice="16.28999089631971 0.0 0.0 0.0 16.28999089631971 0.0 0.0 0.0 34.48637585096406" Properties=species:S:1:pos:R:3:initial_magmoms:R:1 pbc="T T T"
Si       1.40480073      -1.22867325      -1.40790708       0.00000000
Si       1.83278790       0.80299926       1.23899272       0.00000000
Si      -1.32704856      -1.28218590       1.56023349       0.00000000
Si      -1.30254840       1.50342039      -1.39283653       0.00000000
Si       0.61923177       1.30882005       3.24537670       0.00000000
Si      -2.57859297       0.38814183       2.63224308       0.00000000
Si      -2.68620471      -2.59481781       0.08759544       0.00000000
Si       0.05515794      -2.56025043      -2.77232682       0.00000000
Si       2.72416041      -2.69736336      -0.01300137       0.00000000
Si      -2.65991265       0.15446178      -2.76646413       0.00000000
