10
Lattice="16.28999089631971 0.0 0.0 0.0 16.28999089631971 0.0 0.0 0.0 34.48637585096406" Properties=species:S:1:pos:R:3:initial_magmoms:R:1 pbc="T T T"
Si      -0.56487204      -2.15866935       0.59820101       0.00000000
Si      -1.84277367       0.62433054      -1.36283336       0.00000000
Si      -0.49026384       1.23992964       1.97910524       0.00000000
Si       2.13972475       0.02961522      -1.14281016       0.00000000
Si       2.90134089       2.06167869       0.95282461       0.00000000
Si       1.03428468       2.96846154       1.96851792       0.00000000
Si       1.05300189      -2.87016768       2.12970733       0.00000000
Si      -3.69216108       0.61843356       0.13477283       0.00000000
Si      -2.72157030       1.92428883       1.82739959       0.00000000
Si       2.05972619      -2.08888299      -2.46974319       0.00000000
