10
Lattice="16.28999089631971 0.0 0.0 0.0 16.28999089631971 0.0 0.0 0.0 34.48637585096406" Properties=species:S:1:pos:R:3:initial_magmoms:R:1 pbc="T T T"
Si       0.79177545       1.37301894       1.76359976       0.00000000
Si      -1.93562245      -1.31479848       0.51574404       0.00000000
Si       2.08773780      -1.04414013      -0.56461126       0.00000000
Si      -0.89599465       1.47095442      -1.67762518       0.00000000
Si       3.21435420       1.00807407      -1.11566937       0.00000000
Si      -2.90416069       2.08010268      -0.63927431       0.00000000
Si       3.06238479       1.74966003       1.14953501       0.00000000
Si      -3.72788083       0.18015111       0.37348766       0.00000000
Si       1.61376396      -2.29276863      -2.52223148       0.00000000
Si      -2.28812176      -2.72802114      -1.33169215       0.00000000
