10
Lattice="16.28999089631971 0.0 0.0 0.0 16.28999089631971 0.0 0.0 0.0 34.48637585096406" Properties=species:S:1:pos:R:3:initial_magmoms:R:1 pbc="T T T"
Si      -1.35736425      -1.34895861      -1.37362760       0.00000000
Si       1.35871632       1.36461330      -1.37552436       0.00000000
Si      -1.47374001       1.30836393       1.34127937       0.00000000
Si       1.30254840      -1.50342039       1.39283653       0.00000000
Si      -0.04781115       2.55821418       2.69580151       0.00000000
Si       2.72736954       2.70213633      -0.01086321       0.00000000
Si      -2.72663649      -2.70909216       0.00982862       0.00000000
Si       2.70734913      -2.73209364      -0.01507055       0.00000000
Si      -0.00146610      -2.70845685      -2.73470216       0.00000000
Si       2.71197549       0.00759114      -2.73352962       0.00000000
