10
Lattice="16.28999089631971 0.0 0.0 0.0 16.28999089631971 0.0 0.0 0.0 34.48637585096406" Properties=species:S:1:pos:R:3:initial_magmoms:R:1 pbc="T T T"
Si      -0.21502800       2.27910851      -0.50526017       0.00000000
Si       2.30998716      -0.44619939      -0.26202763       0.00000000
Si      -1.21163391      -1.47268116      -1.41573549       0.00000000
Si       1.38565998       2.29512158       1.49898565       0.00000000
Si       1.37407779       2.58277040      -2.18478210       0.00000000
Si       2.41960257      -2.08189458      -1.90595960       0.00000000
Si       3.18875351       1.69956732      -0.92795992       0.00000000
Si      -2.84990292      -2.40642396       0.24937112       0.00000000
Si       0.37447452      -3.20601861      -1.97758784       0.00000000
Si       2.15013339       0.62489159       3.13058912       0.00000000
