10
Lattice="16.28999089631971 0.0 0.0 0.0 16.28999089631971 0.0 0.0 0.0 34.48637585096406" Properties=species:S:1:pos:R:3:initial_magmoms:R:1 pbc="T T T"
Si      -2.16215445      -0.76116654       0.42373434       0.00000000
Si       1.84261891      -1.40058162      -0.28916842       0.00000000
Si      -0.42507452       1.25726220      -1.92989316       0.00000000
Si       0.92839154       1.52052489       1.60296213       0.00000000
Si      -2.08291989       2.68646535      -0.98217253       0.00000000
Si       1.84553483       1.63390329      -2.54395791       0.00000000
Si       2.85628046      -1.14456798       1.81270839       0.00000000
Si       3.12216584      -0.28409760      -1.94065291       0.00000000
Si      -3.54706509       1.09123452       0.14939506       0.00000000
Si       1.73777648       0.23504841       3.38280498       0.00000000
