10
Lattice="16.28999089631971 0.0 0.0 0.0 16.28999089631971 0.0 0.0 0.0 34.48637585096406" Properties=species:S:1:pos:R:3:initial_magmoms:R:1 pbc="T T T"
Si       1.31925380      -1.34338743       1.39625068       0.00000000
Si       1.35973445       1.35037584      -1.35238398       0.00000000
Si      -1.39826748       1.19459457       1.45625701       0.00000000
Si      -1.35053778      -1.36223496      -1.35379793       0.00000000
Si      -2.28941193      -0.71278524       2.65327978       0.00000000
Si      -0.47018641      -2.41610022       2.63338113       0.00000000
Si       0.22663951       2.35287873       2.78070701       0.00000000
Si      -2.69737869       2.68977222       0.01058732       0.00000000
Si       2.69240305      -2.71622718      -0.00355210       0.00000000
Si       0.00372552       2.71094922      -2.71269984       0.00000000
