10
Lattice="16.28999089631971 0.0 0.0 0.0 16.28999089631971 0.0 0.0 0.0 34.48637585096406" Properties=species:S:1:pos:R:3:initial_magmoms:R:1 pbc="T T T"
Si      -0.92785301      -1.79704764      -1.23209544       0.00000000
Si       1.87325226      -0.68212746       1.38145602       0.00000000
Si       1.78944021       1.07271279      -1.23713045       0.00000000
Si      -1.81922552       1.70331498       0.01989865       0.00000000
Si      -0.12620026      -1.44937017       2.48336531       0.00000000
Si      -2.24721269      -0.32835753      -2.62700115       0.00000000
Si       0.47018641       2.41610022      -2.63338113       0.00000000
Si       1.97131806       1.40753745       2.75108320       0.00000000
Si      -0.92808107       3.61069479      -1.17712412       0.00000000
Si      -3.65201342       0.90031572      -1.21909407       0.00000000
