10
Lattice="16.28999089631971 0.0 0.0 0.0 16.28999089631971 0.0 0.0 0.0 34.48637585096406" Properties=species:S:1:pos:R:3:initial_magmoms:R:1 pbc="T T T"
Si       0.78213177      -2.14920486       0.51798565       0.00000000
Si      -1.85249880       0.70296237       1.27792786       0.00000000
Si      -0.79187319       0.28650852      -2.22257919       0.00000000
Si       1.69476273       1.68638967       0.30127315       0.00000000
Si      -2.42482840       2.22632172      -0.44535731       0.00000000
Si      -0.81528192       1.93059306       3.02100821       0.00000000
Si       1.47890394       2.14250967       2.60472294       0.00000000
Si      -0.09629019       2.49898374      -2.83871313       0.00000000
Si       0.93615372       3.55783374      -0.98593155       0.00000000
Si       2.86559019      -2.51366103      -0.41031913       0.00000000
