10
Lattice="16.28999089631971 0.0 0.0 0.0 16.28999089631971 0.0 0.0 0.0 34.48637585096406" Properties=species:S:1:pos:R:3:initial_magmoms:R:1 pbc="T T T"
Si      -1.73245779       1.35112518      -0.84284750       0.00000000
Si       1.03244391       1.05885000       1.85278158       0.00000000
Si       1.27987272      -0.12338046      -2.00128000       0.00000000
Si      -0.69558300      -2.21247522       0.61613394       0.00000000
Si      -2.32853821      -0.27266202       2.39335582       0.00000000
Si      -3.04637335      -0.58142268      -1.35093556       0.00000000
Si       2.51025642       2.41179966       0.51605442       0.00000000
Si      -0.94874589       1.59457923       3.08960165       0.00000000
Si       3.21251832       1.08792765      -1.42011526       0.00000000
Si       1.79105292      -0.81259407       3.13998628       0.00000000
