10
Lattice="16.28999089631971 0.0 0.0 0.0 16.28999089631971 0.0 0.0 0.0 34.48637585096406" Properties=species:S:1:pos:R:3:initial_magmoms:R:1 pbc="T T T"
Si      -1.27417841       0.05066190      -1.93085878       0.00000000
Si      -1.43403218       1.12175288       1.46175797       0.00000000
Si       1.51826058      -1.64618595       0.70093598       0.00000000
Si       2.36760489      -1.72915092      -1.76222030       0.00000000
Si      -0.39541206       2.19642861      -2.59679107       0.00000000
Si       0.18459339       2.30127431       2.69638575       0.00000000
Si      -2.19850559       2.79198287      -0.16984550       0.00000000
Si       2.92840443      -0.41814801       2.36666822       0.00000000
Si       0.34272368      -3.05901765       2.39744733       0.00000000
Si      -0.12517888       3.86660159      -0.91695876       0.00000000
