10
Lattice="10.86 0.0 0.0 0.0 10.86 0.0 0.0 0.0 10.86" Properties=species:S:1:pos:R:3:initial_magmoms:R:1 pbc="T T T"
Si       1.47648216       1.39480410       1.17573618       0.00000000
Si      -1.23851784       1.39480410      -1.53926382       0.00000000
Si       1.47648216      -1.32019590      -1.53926382       0.00000000
Si      -1.26236640      -1.72193988       1.74048876       0.00000000
Si      -2.56707594      -0.09986856       2.57506890       0.00000000
Si       0.11898216       2.75230410       2.53323618       0.00000000
Si      -2.59601784       2.75230410      -0.18176382       0.00000000
Si      -2.49174012      -2.90026074      -0.08514240       0.00000000
Si      -2.59601784       0.03730410      -2.89676382       0.00000000
Si       2.93254752      -0.19222200       2.55039498       0.00000000
