10
Lattice="10.86 0.0 0.0 0.0 10.86 0.0 0.0 0.0 10.86" Properties=species:S:1:pos:R:3:initial_magmoms:R:1 pbc="T T T"
Si       1.20774060      -1.19771682       1.38696318       0.00000000
Si       1.46177772       1.13493516      -1.26087858       0.00000000
Si      -1.35750000       1.35750000       1.35750000       0.00000000
Si      -1.35750000      -1.35750000      -1.35750000       0.00000000
Si       2.69115144       2.31325602       0.56475258       0.00000000
Si       2.79835050       0.56197242       2.21959938       0.00000000
Si      -2.71500000       2.71500000       0.00000000       0.00000000
Si       2.71500000      -2.71500000       0.00000000       0.00000000
Si       2.71500000       0.00000000      -2.71500000       0.00000000
Si      -2.71500000       0.00000000      -2.71500000       0.00000000
