10
Lattice="10.86 0.0 0.0 0.0 10.86 0.0 0.0 0.0 10.86" Properties=species:S:1:pos:R:3:initial_magmoms:R:1 pbc="T T T"
Si      -0.10719906       1.75128360      -1.65484680       0.00000000
Si      -1.50229638       0.78598164       1.72606668       0.00000000
Si       0.98360106      -1.64177136       1.58802522       0.00000000
Si      -1.59060990      -1.75968924      -0.83263620       0.00000000
Si      -2.79835050       2.15302758       0.49540062       0.00000000
Si      -2.79835050      -0.56197242      -2.21959938       0.00000000
Si      -1.41190860       3.37335492      -0.82026666       0.00000000
Si      -1.33657278       0.57296274      -3.48047796       0.00000000
Si      -0.08335050       2.15302758       3.21040062       0.00000000
Si      -0.08335050      -3.27697242      -2.21959938       0.00000000
