10
Lattice="16.28999089631971 0.0 0.0 0.0 16.28999089631971 0.0 0.0 0.0 34.33025523377368" Properties=species:S:1:pos:R:3:initial_magmoms:R:1 pbc="T T T"
Si      -0.39754237       2.27220969       0.14734554       0.00000000
Si       1.76333332      -1.30038183       0.78973363       0.00000000
Si      -1.54790959      -0.72216828       1.66745576       0.00000000
Si      -0.02437105      -0.63537516      -2.37380115       0.00000000
Si       0.65488353      -3.31915266       0.12678170       0.00000000
Si      -2.34286159       2.22798234      -1.19723399       0.00000000
Si      -2.12135017       0.42626043      -2.77017850       0.00000000
Si       3.41344516      -0.57923982      -0.73051391       0.00000000
Si      -1.26604372      -3.07318995       1.51935495       0.00000000
Si       1.48028805       3.24495075      -0.87724150       0.00000000
