10
Lattice="16.28999089631971 0.0 0.0 0.0 16.28999089631971 0.0 0.0 0.0 34.33025523377368" Properties=species:S:1:pos:R:3:initial_magmoms:R:1 pbc="T T T"
Si       1.03540869       1.61693074      -1.36122426       0.00000000
Si      -1.42074864       1.25788285       1.45863157       0.00000000
Si       1.29906234      -1.42112887       1.46094886       0.00000000
Si      -0.88322751      -1.66139008      -1.61183526       0.00000000
Si      -2.59724502      -2.68857232      -0.00824613       0.00000000
Si       2.67053373       2.69757676       0.02637595       0.00000000
Si      -0.06340068       2.63746666       2.82358268       0.00000000
Si       2.75063166      -2.72892265       0.16763473       0.00000000
Si       2.65787640      -0.08199083       2.83336681       0.00000000
Si      -1.23875676      -0.37719984      -3.66409907       0.00000000
