10
Lattice="16.28999089631971 0.0 0.0 0.0 16.28999089631971 0.0 0.0 0.0 34.33025523377368" Properties=species:S:1:pos:R:3:initial_magmoms:R:1 pbc="T T T"
Si      -1.35690813      -1.35684786       1.35635481       0.00000000
Si       1.35646830      -1.35762163      -1.35690410       0.00000000
Si      -1.35734796       1.35751086      -1.35783101       0.00000000
Si       1.35904212       1.35856971       1.35745338       0.00000000
Si       0.00013032      -2.71391936      -2.71246931       0.00000000
Si       2.71238274      -0.00151497       2.71641729       0.00000000
Si      -2.71484253      -2.71473693       0.00037763       0.00000000
Si       2.71505430      -2.71495611       0.00003433       0.00000000
Si       2.71515204       2.71507059      -0.00010299       0.00000000
Si       0.00035838       2.71682991      -2.71356788       0.00000000
