10
Lattice="16.28999089631971 0.0 0.0 0.0 16.28999089631971 0.0 0.0 0.0 34.33025523377368" Properties=species:S:1:pos:R:3:initial_magmoms:R:1 pbc="T T T"
Si       1.35874890      -1.35626372      -1.35889525       0.00000000
Si      -1.35635427       1.35902094      -1.35954753       0.00000000
Si      -1.34827443      -1.35924479       1.37005259       0.00000000
Si       1.36959804       1.35829603       1.37969940       0.00000000
Si      -2.53892682       0.15563026       2.72685370       0.00000000
Si       2.71368594      -2.71190123       0.00089259       0.00000000
Si       2.71293660       2.71435383       0.00051495       0.00000000
Si      -2.71477737      -2.71429586       0.00219714       0.00000000
Si      -2.71428867       0.00113187      -2.71552471       0.00000000
Si       0.00066789      -2.71393748      -2.71603966       0.00000000
