10
Lattice="16.28999089631971 0.0 0.0 0.0 16.28999089631971 0.0 0.0 0.0 34.33025523377368" Properties=species:S:1:pos:R:3:initial_magmoms:R:1 pbc="T T T"
Si       1.70090406       1.45404540       0.62961723       0.00000000
Si      -1.78566093       1.40380704      -0.60768019       0.00000000
Si       0.85963959      -0.71414220      -2.09383777       0.00000000
Si      -0.37579401      -1.01480021       2.11975712       0.00000000
Si       0.49948398       2.38255911       2.41554677       0.00000000
Si      -2.64924922      -0.20019595      -2.17327802       0.00000000
Si      -1.03731462      -1.80932120      -2.88878960       0.00000000
Si       3.27958425      -0.02234988       1.42233760       0.00000000
Si       2.13283341       2.53948068      -1.41097428       0.00000000
Si      -1.12094748       0.87433317       3.32856042       0.00000000
