10
Lattice="16.28999089631971 0.0 0.0 0.0 16.28999089631971 0.0 0.0 0.0 34.33025523377368" Properties=species:S:1:pos:R:3:initial_magmoms:R:1 pbc="T T T"
Si      -1.57016215      -1.17558693       1.27791013       0.00000000
Si       1.19065239      -1.51487505      -1.35680111       0.00000000
Si      -1.52820074       1.22241577      -1.35264714       0.00000000
Si       1.40680440       1.35478505       1.47290609       0.00000000
Si      -1.35889551       0.95111885       3.12525653       0.00000000
Si      -3.29024510       0.54357726       1.45721716       0.00000000
Si       2.53892682      -0.15563026      -2.72685370       0.00000000
Si      -0.17813115       2.56129739      -2.72740298       0.00000000
Si      -2.86576824       2.56385492       0.20907137       0.00000000
Si       2.61649980      -2.83356684       0.06938148       0.00000000
