10
Lattice="16.28999089631971 0.0 0.0 0.0 16.28999089631971 0.0 0.0 0.0 34.33025523377368" Properties=species:S:1:pos:R:3:initial_magmoms:R:1 pbc="T T T"
Si       1.54658889      -1.16051589       1.34214208       0.00000000
Si       1.36961433       1.33999911      -1.38024868       0.00000000
Si      -1.34697123      -1.37531583      -1.37983672       0.00000000
Si      -1.32253623       1.51692480       1.54156664       0.00000000
Si       2.40727104       0.52168725       2.85487129       0.00000000
Si      -2.69335602       2.70997182      -0.00463459       0.00000000
Si      -2.69889462      -2.71181259       0.01253055       0.00000000
Si       2.72992707       2.70858717      -0.02238334       0.00000000
Si       0.01622484       2.69910639      -2.73948724       0.00000000
Si      -2.69772174      -0.01656693      -2.74089478       0.00000000
