10
Lattice="16.28999089631971 0.0 0.0 0.0 16.28999089631971 0.0 0.0 0.0 34.33025523377368" Properties=species:S:1:pos:R:3:initial_magmoms:R:1 pbc="T T T"
Si      -0.69296031      -1.74785184      -1.52309695       0.00000000
Si      -0.23757336       0.74360592       2.34825943       0.00000000
Si       1.43845587       1.30052844      -1.58159574       0.00000000
Si       0.52680231      -2.80867293       0.32589730       0.00000000
Si       0.57777372      -0.38167470      -3.09432495       0.00000000
Si       2.93827617       1.60772526       0.31642214       0.00000000
Si       1.49213142       2.43064719       2.03358814       0.00000000
Si       1.98827595      -2.25903204       2.44232438       0.00000000
Si      -0.80803287       3.52789272      -1.58111512       0.00000000
Si       0.28904976      -1.17615429       3.77492264       0.00000000
