10
Lattice="16.28999089631971 0.0 0.0 0.0 16.28999089631971 0.0 0.0 0.0 34.33025523377368" Properties=species:S:1:pos:R:3:initial_magmoms:R:1 pbc="T T T"
Si       0.99284292      -2.08108008       0.27028225       0.00000000
Si       0.97322976       1.65814281       1.35628615       0.00000000
Si       0.98253135       0.66290526      -2.05490724       0.00000000
Si      -2.26388646      -0.84978414       0.41556797       0.00000000
Si      -2.16632565      -2.08849203      -1.83107385       0.00000000
Si      -1.74685815      -0.42080328       3.04894033       0.00000000
Si      -0.05918157      -3.22584354      -1.50291075       0.00000000
Si      -0.51414498       1.60319664       3.21533917       0.00000000
Si       3.20033340      -1.87745508      -0.42813285       0.00000000
Si      -0.78556896       0.85493178      -3.60485047       0.00000000
