10
Lattice="16.28999089631971 0.0 0.0 0.0 16.28999089631971 0.0 0.0 0.0 34.33025523377368" Properties=species:S:1:pos:R:3:initial_magmoms:R:1 pbc="T T T"
Si       1.39230630       1.66237821      -0.82124882       0.00000000
Si      -1.00020600       0.81197505       1.94192630       0.00000000
Si      -1.52883279      -0.33878313      -1.74408093       0.00000000
Si       1.36852290      -1.84691133       1.09115344       0.00000000
Si       2.39142087       1.45609794       1.26328544       0.00000000
Si       0.98383455       0.85271634       3.17788484       0.00000000
Si      -0.54846801      -3.39311578       1.17124597       0.00000000
Si      -3.14926425      -1.84700907      -0.83106728       0.00000000
Si       2.93177646       0.61279722      -2.27860330       0.00000000
Si      -0.32741271      -1.26729684      -3.53001047       0.00000000
