10
Lattice="16.28999089631971 0.0 0.0 0.0 16.28999089631971 0.0 0.0 0.0 34.33025523377368" Properties=species:S:1:pos:R:3:initial_magmoms:R:1 pbc="T T T"
Si      -1.34837217      -1.34345259       1.37733061       0.00000000
Si      -1.35373158       1.35866745      -1.35731606       0.00000000
Si       1.36120869      -1.35431802      -1.35752204       0.00000000
Si       1.36042677       1.35619137       1.36788978       0.00000000
Si      -2.71186146      -2.71476108       0.00195683       0.00000000
Si      -2.71262709       0.00115659      -2.71531872       0.00000000
Si       2.71459818      -2.71342530       0.00171651       0.00000000
Si       0.00198738      -2.71347417      -2.71525006       0.00000000
Si      -2.71331127       2.71591767       0.00284941       0.00000000
Si       0.00213399       2.71627605      -2.71538739       0.00000000
