10
Lattice="16.28999089631971 0.0 0.0 0.0 16.28999089631971 0.0 0.0 0.0 34.33025523377368" Properties=species:S:1:pos:R:3:initial_magmoms:R:1 pbc="T T T"
Si       0.73783926      -1.38813606       1.71823023       0.00000000
Si      -1.71163917       1.48087503       0.62161828       0.00000000
Si       1.97151354       1.40014179      -0.15894917       0.00000000
Si      -1.20106170      -1.30495932      -2.04635900       0.00000000
Si      -0.41777334       0.97502166      -2.67419106       0.00000000
Si      -1.78316856       2.48632641      -1.54142932       0.00000000
Si       1.88219547       1.38191328      -2.51592849       0.00000000
Si      -1.06971543      -3.40881282      -0.86265114       0.00000000
Si       2.56718997      -2.58818778       0.77418202       0.00000000
Si       0.87131952       0.07475481       3.65301584       0.00000000
