10
Lattice="16.28999089631971 0.0 0.0 0.0 16.28999089631971 0.0 0.0 0.0 34.33025523377368" Properties=species:S:1:pos:R:3:initial_magmoms:R:1 pbc="T T T"
Si      -1.78025265      -0.94739382      -1.12397318       0.00000000
Si      -1.46113155       1.01783178       1.70072179       0.00000000
Si       1.26910503      -1.48538736       1.53016899       0.00000000
Si       1.07222409       1.44893034      -1.75307546       0.00000000
Si       1.96745733      -1.82361663      -0.69120575       0.00000000
Si      -0.54867978      -1.77279183      -2.94371804       0.00000000
Si      -2.45226402       2.55101400       0.09183348       0.00000000
Si      -0.50516919       3.35365488      -1.27248595       0.00000000
Si      -3.28373820       0.87144984      -1.38498626       0.00000000
Si       0.93874383      -0.01396053      -3.68786107       0.00000000
