10
Lattice="16.28999089631971 0.0 0.0 0.0 16.28999089631971 0.0 0.0 0.0 34.33025523377368" Properties=species:S:1:pos:R:3:initial_magmoms:R:1 pbc="T T T"
Si       1.71471798       0.97974576      -1.14321084       0.00000000
Si       1.26705249      -1.45543005       1.28825041       0.00000000
Si      -1.45686357       1.28106189       1.27834270       0.00000000
Si      -1.23662277      -1.24281297      -1.53867058       0.00000000
Si      -0.09827757       2.62150083       2.64012856       0.00000000
Si       2.61845460      -0.09296703       2.64369891       0.00000000
Si      -2.66092263      -2.61291600      -0.08928618       0.00000000
Si       0.84693339       2.31839280      -2.81664938       0.00000000
Si       2.80067454      -2.51597421      -0.17023696       0.00000000
Si      -2.63616183       2.73285927      -0.19643783       0.00000000
