10
Lattice="16.28999089631971 0.0 0.0 0.0 16.28999089631971 0.0 0.0 0.0 34.33025523377368" Properties=species:S:1:pos:R:3:initial_magmoms:R:1 pbc="T T T"
Si       1.35472527       1.36212093      -1.36634492       0.00000000
Si      -1.36042677      -1.35619137      -1.36788978       0.00000000
Si       1.32714630      -1.37645613       1.39919899       0.00000000
Si      -1.28138769       1.39608558       1.42899767       0.00000000
Si       2.47508631       0.05958882       2.88995683       0.00000000
Si      -2.70879894      -2.69964396       0.00944083       0.00000000
Si       2.71448415      -2.70102861      -0.00830793       0.00000000
Si      -2.70723510       2.71477737       0.00281508       0.00000000
Si       2.71344159       2.72026710      -0.00374200       0.00000000
Si       0.00078192      -2.71050939      -2.72541183       0.00000000
