10
Lattice="16.28999089631971 0.0 0.0 0.0 16.28999089631971 0.0 0.0 0.0 34.33025523377368" Properties=species:S:1:pos:R:3:initial_magmoms:R:1 pbc="T T T"
Si       1.52379918       0.64346870       1.63473901       0.00000000
Si      -1.78658946       1.48289729      -0.36366060       0.00000000
Si       1.29973023      -0.04005711      -2.00605526       0.00000000
Si      -1.24646193      -1.91910861       0.72642861       0.00000000
Si       0.11893329      -3.43041336      -0.40633313       0.00000000
Si      -0.01803303      -1.16957313      -3.61010300       0.00000000
Si      -3.36232116      -1.82734704      -0.29637326       0.00000000
Si      -2.64622905       2.19703949       1.73017717       0.00000000
Si       3.51811872       1.44182857       0.64558081       0.00000000
Si       2.41890210      -3.02352174      -0.24807056       0.00000000
