10
Lattice="16.28999089631971 0.0 0.0 0.0 16.28999089631971 0.0 0.0 0.0 34.33025523377368" Properties=species:S:1:pos:R:3:initial_magmoms:R:1 pbc="T T T"
Si      -1.31776326      -1.12951602      -1.60404774       0.00000000
Si       0.51834780       2.17651409      -0.78980229       0.00000000
Si      -1.29973023       0.04005711       2.00605526       0.00000000
Si       1.89175770      -1.50614082       0.06333936       0.00000000
Si       0.33203907      -1.53000567      -3.27857554       0.00000000
Si       1.11917187      -2.98346463       1.75798469       0.00000000
Si       1.68358779       3.11862995       0.98500423       0.00000000
Si       0.22406895       0.68352581       3.64079426       0.00000000
Si       2.21838849       1.48188568       2.65163607       0.00000000
Si      -1.92694410      -3.18855573      -0.58512520       0.00000000
