10
Lattice="16.28999089631971 0.0 0.0 0.0 16.28999089631971 0.0 0.0 0.0 34.33025523377368" Properties=species:S:1:pos:R:3:initial_magmoms:R:1 pbc="T T T"
Si       0.81983823       2.17140813      -0.11047482       0.00000000
Si      -0.47359917      -0.44667180      -2.25385118       0.00000000
Si       2.07079620      -1.11293280       0.26180267       0.00000000
Si      -1.72917928      -0.49906044       1.79876906       0.00000000
Si      -1.70028082      -2.43598216      -1.98494214       0.00000000
Si      -0.96798016       3.46758714      -0.79488317       0.00000000
Si       3.69122766       0.39529314      -0.65121098       0.00000000
Si      -0.78321978      -3.68641104      -0.09674271       0.00000000
Si      -1.40637664      -2.79993009       2.13802083       0.00000000
Si       1.02650946       2.99346669       2.10451448       0.00000000
