10
Lattice="16.28999089631971 0.0 0.0 0.0 16.28999089631971 0.0 0.0 0.0 34.33025523377368" Properties=species:S:1:pos:R:3:initial_magmoms:R:1 pbc="T T T"
Si       1.35705474       1.35670613      -1.35752204       0.00000000
Si      -1.35840681      -1.35790788      -1.35741905       0.00000000
Si      -1.36107837       1.35553325       1.35896391       0.00000000
Si       1.35905841      -1.35918614       1.36006248       0.00000000
Si       2.71378368      -0.00037467      -2.71504408       0.00000000
Si       2.71430496      -2.71498655       0.00003433       0.00000000
Si      -0.00076563      -2.71536122      -2.71446047       0.00000000
Si      -2.71441899       2.71561793       0.00000000       0.00000000
Si      -2.71526607      -2.71508429      -0.00044629       0.00000000
Si      -0.00169416       2.71574825      -2.71500975       0.00000000
