10
Lattice="16.28999089631971 0.0 0.0 0.0 16.28999089631971 0.0 0.0 0.0 34.33025523377368" Properties=species:S:1:pos:R:3:initial_magmoms:R:1 pbc="T T T"
Si       0.98538210       1.57494115       1.47791831       0.00000000
Si      -0.75800628      -2.12566534       0.78039580       0.00000000
Si      -2.01354174       1.23639585      -0.75327488       0.00000000
Si       1.40864517       0.22830712      -2.22552870       0.00000000
Si      -0.57169755       1.58085442       3.26916904       0.00000000
Si      -0.89349021       3.12355000      -1.77830821       0.00000000
Si       0.56798343       3.67319089       0.33811887       0.00000000
Si       1.00289385      -3.11238322       1.99997880       0.00000000
Si      -2.40780861      -1.72517569       2.45492359       0.00000000
Si      -1.55634660      -3.01562062      -1.81868062       0.00000000
