10
Lattice="16.28999089631971 0.0 0.0 0.0 16.28999089631971 0.0 0.0 0.0 34.33025523377368" Properties=species:S:1:pos:R:3:initial_magmoms:R:1 pbc="T T T"
Si       1.34258922       1.33332021       1.36617327       0.00000000
Si      -1.37626065      -1.37091753       1.36061177       0.00000000
Si       1.35767376      -1.31080743      -1.43659496       0.00000000
Si      -1.01302623       1.58799807      -1.51196365       0.00000000
Si      -1.01931417      -0.13975191      -3.12043111       0.00000000
Si      -0.27745128      -2.39145345      -2.82419517       0.00000000
Si      -2.71112841       2.69941590      -0.02380805       0.00000000
Si       2.69806383       2.72215674      -0.00754923       0.00000000
Si      -0.01145187       2.69794980       2.72489687       0.00000000
Si       2.68491780      -2.74010832      -0.00813971       0.00000000
