10
Lattice="16.28999089631971 0.0 0.0 0.0 16.28999089631971 0.0 0.0 0.0 34.33025523377368" Properties=species:S:1:pos:R:3:initial_magmoms:R:1 pbc="T T T"
Si      -1.35661491       1.35637056       1.35745338       0.00000000
Si       1.35860229       1.35681039      -1.35676678       0.00000000
Si       1.35874890      -1.35904212       1.35748771       0.00000000
Si      -1.35492075      -1.36168110      -1.35961619       0.00000000
Si      -0.00164529       2.70928764      -2.71549038       0.00000000
Si       0.00078192      -2.71440759      -2.71126775       0.00000000
Si      -2.71355562       2.71355562      -0.00027464       0.00000000
Si      -2.71272483      -0.00013032       2.71500975       0.00000000
Si       0.00135207       2.71278999       2.71531872       0.00000000
Si       2.71621089       2.71340901       0.00010299       0.00000000
