10
Lattice="16.28999089631971 0.0 0.0 0.0 16.28999089631971 0.0 0.0 0.0 34.33025523377368" Properties=species:S:1:pos:R:3:initial_magmoms:R:1 pbc="T T T"
Si      -1.30706073      -1.23005790      -1.53898642       0.00000000
Si      -1.53362205       1.06054416       1.45848738       0.00000000
Si       0.67634451       1.89286542      -1.30499127       0.00000000
Si       1.17133245      -1.62204417       1.43746695       0.00000000
Si       2.65957056       2.49067584      -0.12514415       0.00000000
Si      -0.18221994       2.42300718       2.81393587       0.00000000
Si      -2.53975761      -2.75620284      -0.06694747       0.00000000
Si      -2.80067454       2.51597421       0.17023696       0.00000000
Si      -1.08595656       3.49571997      -0.97297388       0.00000000
Si       2.53013022      -0.29238921       2.80991923       0.00000000
