10
Lattice="16.28999089631971 0.0 0.0 0.0 16.28999089631971 0.0 0.0 0.0 34.33025523377368" Properties=species:S:1:pos:R:3:initial_magmoms:R:1 pbc="T T T"
Si       1.38028428      -1.28993994       1.38399068       0.00000000
Si       1.35630540       1.34656398      -1.35844896       0.00000000
Si      -1.36031274      -1.36858806      -1.35786534       0.00000000
Si      -1.38733785       1.32457248       1.40750692       0.00000000
Si      -0.32265603      -2.18689992       2.87725463       0.00000000
Si       2.70288567       2.70780525       0.00865123       0.00000000
Si      -2.71448415       2.70102861       0.00830793       0.00000000
Si       0.00125433       2.70480789      -2.71875175       0.00000000
Si      -2.71370223      -0.00948078      -2.71710390       0.00000000
Si       2.71401174      -0.01124010      -2.71686359       0.00000000
