10
Lattice="16.28999089631971 0.0 0.0 0.0 16.28999089631971 0.0 0.0 0.0 34.33025523377368" Properties=species:S:1:pos:R:3:initial_magmoms:R:1 pbc="T T T"
Si      -0.00884547       1.87214454       1.38138158       0.00000000
Si      -0.42407757       0.53965512      -2.31588598       0.00000000
Si       2.17671867      -1.00645159      -0.31357273       0.00000000
Si      -1.85299402      -1.26747603       0.98043831       0.00000000
Si       1.72498068       3.19863924       0.45710760       0.00000000
Si      -1.35951453      -3.46609565      -0.01050506       0.00000000
Si       0.32107590      -1.34947826      -3.52468927       0.00000000
Si       2.53224792      -2.29064183       1.73869108       0.00000000
Si      -1.70424351      -0.44982066       3.47995834       0.00000000
Si       2.72518668       2.38666419      -1.48481870       0.00000000
