10
Lattice="16.28999089631971 0.0 0.0 0.0 16.28999089631971 0.0 0.0 0.0 34.33025523377368" Properties=species:S:1:pos:R:3:initial_magmoms:R:1 pbc="T T T"
Si       0.69835230      -0.33822927      -2.22137474       0.00000000
Si       1.30706073       1.23005790       1.53898642       0.00000000
Si      -1.23269688      -1.52614494       1.47203895       0.00000000
Si      -1.26910503       1.48538736      -1.53016899       0.00000000
Si       0.16860150      -2.65051332      -2.05102791       0.00000000
Si      -1.23898482      -3.25389492      -0.13642851       0.00000000
Si       1.98340524       3.12292332       0.23399515       0.00000000
Si      -2.73023658       2.50321914       0.17055280       0.00000000
Si      -0.22656132       2.29060206       2.99747380       0.00000000
Si       2.47839318      -0.39198627       2.97645337       0.00000000
