10
Lattice="16.28999089631971 0.0 0.0 0.0 16.28999089631971 0.0 0.0 0.0 34.33025523377368" Properties=species:S:1:pos:R:3:initial_magmoms:R:1 pbc="T T T"
Si       1.98322605       0.59781042       1.17984712       0.00000000
Si      -0.67634451      -1.89286542       1.30499127       0.00000000
Si      -1.76230107       1.60285455       0.33201739       0.00000000
Si      -0.02120958       0.53353008      -2.59804651       0.00000000
Si       0.52476606       1.87675461       2.75384900       0.00000000
Si      -2.20996656      -0.83232126       2.76347865       0.00000000
Si      -0.76530420       3.31561773       1.45467126       0.00000000
Si      -1.98340524      -3.12292332      -0.23399515       0.00000000
Si      -3.47701905       0.62310879       1.47522823       0.00000000
Si       2.76351705       2.65735512       0.08779045       0.00000000
