10
Lattice="16.28999089631971 0.0 0.0 0.0 16.28999089631971 0.0 0.0 0.0 34.33025523377368" Properties=species:S:1:pos:R:3:initial_magmoms:R:1 pbc="T T T"
Si      -0.69835230       0.33822927       2.22137474       0.00000000
Si      -0.52975080      -2.31228405       0.17034682       0.00000000
Si       1.53389898      -0.25738200      -1.88617394       0.00000000
Si      -1.96745733       1.82361663       0.69120575       0.00000000
Si      -1.52886537      -2.10600378      -1.91418744       0.00000000
Si      -2.51613711       0.05082480      -2.25251230       0.00000000
Si       1.66467510      -3.12144093       0.21765394       0.00000000
Si      -0.89523324       3.27254697      -1.06186972       0.00000000
Si      -1.02871350       1.80965610      -2.99665532       0.00000000
Si       1.90078236      -2.53615752      -2.14282707       0.00000000
