10
Lattice="16.28999089631971 0.0 0.0 0.0 16.28999089631971 0.0 0.0 0.0 34.33025523377368" Properties=species:S:1:pos:R:3:initial_magmoms:R:1 pbc="T T T"
Si       1.36213722      -1.30030975      -1.36550726       0.00000000
Si       1.36189287       1.34021033       1.36439840       0.00000000
Si      -1.35182565      -1.37664469       1.36683584       0.00000000
Si      -1.56292776       1.19638266      -1.43497114       0.00000000
Si      -0.44535231      -1.96220503      -2.66179474       0.00000000
Si       2.70757719       2.69752408      -0.02778006       0.00000000
Si      -2.72702745       2.69325610      -0.00771745       0.00000000
Si       0.00749340       2.69900647       2.72480418       0.00000000
Si      -2.68410330      -2.74280554       0.00426382       0.00000000
Si      -2.70961344      -0.01620662       2.72470119       0.00000000
