10
Lattice="16.28999089631971 0.0 0.0 0.0 16.28999089631971 0.0 0.0 0.0 34.33025523377368" Properties=species:S:1:pos:R:3:initial_magmoms:R:1 pbc="T T T"
Si       1.94531922       0.04422735       1.34457953       0.00000000
Si      -0.51188067       1.87972753      -1.36723751       0.00000000
Si      -1.84792131      -1.04881440       1.09053550       0.00000000
Si       0.22151142      -1.80172191      -1.57294451       0.00000000
Si      -1.70282628      -2.78899365      -0.50561628       0.00000000
Si       2.34286159      -2.22798234       1.19723399       0.00000000
Si       2.31849054      -2.86335750      -1.17656716       0.00000000
Si      -1.42306182       1.01461288      -3.45184043       0.00000000
Si       1.47826863       3.12159568      -1.79736152       0.00000000
Si      -0.37344825      -1.10529183      -3.75415283       0.00000000
