10
Lattice="16.28999089631971 0.0 0.0 0.0 16.28999089631971 0.0 0.0 0.0 34.33025523377368" Properties=species:S:1:pos:R:3:initial_magmoms:R:1 pbc="T T T"
Si      -0.32280264       2.30086965      -0.33925177       0.00000000
Si       0.62315686      -0.88648095      -2.23476354       0.00000000
Si       2.04825640      -0.12013386       1.42010613       0.00000000
Si      -1.33406955      -2.63847731       0.65090200       0.00000000
Si       2.54173589      -2.31875348       0.42916276       0.00000000
Si      -2.43046800       2.15704524      -1.57610290       0.00000000
Si       1.40637664       2.79993009      -2.13802083       0.00000000
Si      -0.58849254      -2.86919258      -2.56206838       0.00000000
Si       0.72699568      -3.85810961       0.36458751       0.00000000
Si       2.81628755      -1.89149936      -2.19246865       0.00000000
