10
Lattice="16.28999089631971 0.0 0.0 0.0 16.28999089631971 0.0 0.0 0.0 34.33025523377368" Properties=species:S:1:pos:R:3:initial_magmoms:R:1 pbc="T T T"
Si      -0.45683676      -1.09364544       1.98610937       0.00000000
Si      -1.66775391       1.76640615       0.27282269       0.00000000
Si       0.08029341      -1.87520706      -1.56899653       0.00000000
Si       2.32746633       0.77796153       0.19279882       0.00000000
Si       2.08917621       1.51386228      -1.99798764       0.00000000
Si       1.24597323      -0.44872434      -3.15086692       0.00000000
Si       0.84665646       0.03578913       3.62651287       0.00000000
Si       0.67725675      -3.13851285       1.89788056       0.00000000
Si       0.41624208       3.27212343      -1.86718930       0.00000000
Si      -0.44817048       3.77367624       0.33458285       0.00000000
