10
Lattice="16.28999089631971 0.0 0.0 0.0 16.28999089631971 0.0 0.0 0.0 34.33025523377368" Properties=species:S:1:pos:R:3:initial_magmoms:R:1 pbc="T T T"
Si      -0.13038516      -2.20175640       0.77538358       0.00000000
Si       0.20803959      -0.47454399      -2.29037859       0.00000000
Si      -1.36777356       1.51830945       1.17914194       0.00000000
Si       2.30288472      -0.39201885       0.58196681       0.00000000
Si       2.01790746      -2.67156000       0.04099035       0.00000000
Si       2.01906405      -2.04454161      -2.23146784       0.00000000
Si      -0.76401729       3.56382846       0.24580476       0.00000000
Si      -1.98970947      -3.13186653      -0.13351044       0.00000000
Si      -0.76743819       1.14414444       3.49516524       0.00000000
Si      -0.42437079      -2.36558493       3.08309895       0.00000000
