10
Lattice="16.28999089631971 0.0 0.0 0.0 16.28999089631971 0.0 0.0 0.0 34.33025523377368" Properties=species:S:1:pos:R:3:initial_magmoms:R:1 pbc="T T T"
Si      -1.29914379      -1.03679334      -1.64472366       0.00000000
Si       1.28412731      -1.33602435       1.46085960       0.00000000
Si      -1.42814430       1.38204360       1.44383522       0.00000000
Si      -0.37558224       0.87557121      -3.00330994       0.00000000
Si       1.54020388       1.93911273      -1.99633433       0.00000000
Si      -2.67112017      -2.43980217       0.01955452       0.00000000
Si       2.84679057      -2.55505392       0.04612959       0.00000000
Si       2.62883689       0.03228678       2.83408774       0.00000000
Si      -2.67330303       2.81512377      -0.09912180       0.00000000
Si      -0.08211789      -2.68771968       2.83861934       0.00000000
