10
Lattice="16.28999089631971 0.0 0.0 0.0 16.28999089631971 0.0 0.0 0.0 34.33025523377368" Properties=species:S:1:pos:R:3:initial_magmoms:R:1 pbc="T T T"
Si       1.35711990       1.35597960       1.35851762       0.00000000
Si      -1.35817875      -1.35889551       1.35848329       0.00000000
Si      -1.36176255       1.35547461      -1.35838030       0.00000000
Si       1.35886293      -1.36430379      -1.35570254       0.00000000
Si      -0.00312768      -2.69127090      -2.73398753       0.00000000
Si       2.71452385      -2.71492398       0.00466892       0.00000000
Si      -0.00094482       2.71415835       2.71590234       0.00000000
Si       2.71510849       2.71529865       0.00127022       0.00000000
Si       2.71444753      -0.00115659       2.71614265       0.00000000
Si      -2.71578735      -2.71549413       0.00161352       0.00000000
