10
Lattice="16.28999089631971 0.0 0.0 0.0 16.28999089631971 0.0 0.0 0.0 34.33025523377368" Properties=species:S:1:pos:R:3:initial_magmoms:R:1 pbc="T T T"
Si      -1.44151839       1.86412986      -0.42679397       0.00000000
Si      -1.15737192      -1.99625805      -0.72886606       0.00000000
Si       0.47570058      -0.92782953       2.19082079       0.00000000
Si       1.91909232       0.40998672      -1.48032143       0.00000000
Si       3.23832561      -1.49063274      -1.10004498       0.00000000
Si       0.36575937      -3.75275988      -0.28861462       0.00000000
Si       2.61592739      -0.22465539       2.79592621       0.00000000
Si      -2.27115180       1.60493967      -2.64401474       0.00000000
Si      -1.30908069      -0.19054413       3.64656175       0.00000000
Si       0.36862641       3.20595345       2.20190947       0.00000000
