10
Lattice="16.28999089631971 0.0 0.0 0.0 16.28999089631971 0.0 0.0 0.0 34.33025523377368" Properties=species:S:1:pos:R:3:initial_magmoms:R:1 pbc="T T T"
Si       1.52313129      -1.75650183       0.44025144       0.00000000
Si       1.15737192       1.99625805       0.72886606       0.00000000
Si      -2.11100481      -0.70066548       1.00931007       0.00000000
Si      -0.73953342      -0.16311177      -2.52423642       0.00000000
Si       1.97384301      -0.39504879      -2.79547992       0.00000000
Si       1.63307250       1.06842852       2.91968685       0.00000000
Si       2.23806681      -1.26412029       2.67765841       0.00000000
Si      -3.40526160      -1.34745993      -0.86883059       0.00000000
Si       3.30525729      -1.45329606      -1.09414018       0.00000000
Si      -2.25090333       1.65998358      -2.57106291       0.00000000
