10
Lattice="16.28999089631971 0.0 0.0 0.0 16.28999089631971 0.0 0.0 0.0 34.33025523377368" Properties=species:S:1:pos:R:3:initial_magmoms:R:1 pbc="T T T"
Si       1.12417357       1.84617828       0.79598174       0.00000000
Si      -0.49624227       0.73192599      -2.15724578       0.00000000
Si       1.70613871      -1.55251845       0.35590195       0.00000000
Si      -1.91342340      -0.16386111       1.37008692       0.00000000
Si      -2.71218726      -2.14900938       0.52882355       0.00000000
Si      -0.28727415       3.56840595       0.26214598       0.00000000
Si       1.26308817      -2.07203913       2.68249898       0.00000000
Si       0.73961487      -3.58487514      -0.10868965       0.00000000
Si      -0.87516396      -0.43059357       3.60303096       0.00000000
Si      -0.77810814       3.08294766      -2.00914498       0.00000000
