10
Lattice="16.28999089631971 0.0 0.0 0.0 16.28999089631971 0.0 0.0 0.0 34.33025523377368" Properties=species:S:1:pos:R:3:initial_magmoms:R:1 pbc="T T T"
Si      -1.18190140       1.01911869       1.83594875       0.00000000
Si       1.29057688       1.47540159      -1.43675631       0.00000000
Si       1.62903421      -1.22502429       1.37897846       0.00000000
Si      -1.41395294      -1.41367878      -1.46614303       0.00000000
Si       0.09291979      -3.02641484       1.45004213       0.00000000
Si       2.85861970      -2.62274864      -0.20230831       0.00000000
Si      -1.83842980      -3.43395644      -0.21799724       0.00000000
Si       2.19307546       3.34089981      -0.06488422       0.00000000
Si       2.63536525      -0.03862359      -3.00822463       0.00000000
Si      -2.44565584      -0.65875131       3.11701727       0.00000000
