10
Lattice="16.28999089631971 0.0 0.0 0.0 16.28999089631971 0.0 0.0 0.0 34.33025523377368" Properties=species:S:1:pos:R:3:initial_magmoms:R:1 pbc="T T T"
Si      -2.21252409      -0.46125135      -0.56329114       0.00000000
Si       0.49624227      -0.73192599       2.15724578       0.00000000
Si      -0.28186587       2.35102167       0.14810080       0.00000000
Si       1.92092724      -0.24596271      -1.39257325       0.00000000
Si       1.62041584       1.11425229       2.95322753       0.00000000
Si       3.02937704       1.77280812      -0.72962132       0.00000000
Si       1.26604372       3.07318995      -1.51935495       0.00000000
Si      -3.49874991       1.00040148       0.75375551       0.00000000
Si       0.20896812       2.83647996       2.41939176       0.00000000
Si      -2.81628036      -2.50677036       0.37004603       0.00000000
