10
Lattice="16.28999089631971 0.0 0.0 0.0 16.28999089631971 0.0 0.0 0.0 34.33025523377368" Properties=species:S:1:pos:R:3:initial_magmoms:R:1 pbc="T T T"
Si      -1.35659862       1.35283563      -1.35686977       0.00000000
Si       1.35871632       1.35534429       1.35838030       0.00000000
Si      -1.35659862      -1.35902583       1.35886092       0.00000000
Si       1.35809730      -1.35946566      -1.35858628       0.00000000
Si      -2.68887627      -0.01332522      -2.71944179       0.00000000
Si      -2.71438641       2.71327369       0.00099558       0.00000000
Si      -2.71393029      -2.71497285       0.00168218       0.00000000
Si       0.00081450       2.71298868       2.71597100       0.00000000
Si       2.71487831       2.71430977       0.00089259       0.00000000
Si      -2.71389771      -0.00169416       2.71542172       0.00000000
