10
Lattice="16.28999089631971 0.0 0.0 0.0 16.28999089631971 0.0 0.0 0.0 34.33025523377368" Properties=species:S:1:pos:R:3:initial_magmoms:R:1 pbc="T T T"
Si       0.59495967      -0.69643008       2.18120832       0.00000000
Si      -1.04961357       2.11990471       0.30231240       0.00000000
Si       1.74687444       0.37359486      -1.59687271       0.00000000
Si      -1.21518513      -2.03825367      -0.44749513       0.00000000
Si      -0.54514485       3.31604846      -1.71050592       0.00000000
Si       0.70218045       0.55545642      -3.67842024       0.00000000
Si      -0.13843242       2.98501937       2.38691532       0.00000000
Si       3.29586515      -1.38344454      -1.44056698       0.00000000
Si      -1.32937803      -1.68370182       3.24853655       0.00000000
Si       0.22633326      -3.90238353      -0.02070116       0.00000000
