10
Lattice="16.28999089631971 0.0 0.0 0.0 16.28999089631971 0.0 0.0 0.0 34.33025523377368" Properties=species:S:1:pos:R:3:initial_magmoms:R:1 pbc="T T T"
Si      -0.22170690      -0.88990641       2.13960002       0.00000000
Si      -2.18739514       0.89567307      -0.25909058       0.00000000
Si       1.15904979       2.05351740       0.36582340       0.00000000
Si       0.40174398      -1.85474682      -1.57078171       0.00000000
Si      -2.00280337      -2.35610415       1.51925196       0.00000000
Si      -1.79635531       1.73174103      -2.43116704       0.00000000
Si      -1.26695475      -3.27538143      -0.55515487       0.00000000
Si       1.88543718      -2.02725792       2.46776312       0.00000000
Si      -0.42741702       3.56232978       1.44664343       0.00000000
Si      -2.57962738       2.23269111       1.84284913       0.00000000
