10
Lattice="16.28999089631971 0.0 0.0 0.0 16.28999089631971 0.0 0.0 0.0 34.33025523377368" Properties=species:S:1:pos:R:3:initial_magmoms:R:1 pbc="T T T"
Si       1.41144772      -1.72222767       0.53383577       0.00000000
Si      -1.97589555      -0.10748142       1.23606153       0.00000000
Si       1.21164940       1.98271163       0.32730484       0.00000000
Si      -0.49083399      -0.48545829      -2.27129096       0.00000000
Si      -0.74557701       0.23071527       3.21297038       0.00000000
Si       1.31548822      -0.98891703       2.92665589       0.00000000
Si      -3.00856752       1.53049437      -0.05990633       0.00000000
Si      -2.73973365       0.28093734      -2.05216081       0.00000000
Si       3.24002303      -1.08611946      -0.78451543       0.00000000
Si       3.40478009       0.97769322       0.36959973       0.00000000
