10
Lattice="16.28999089631971 0.0 0.0 0.0 16.28999089631971 0.0 0.0 0.0 34.33025523377368" Properties=species:S:1:pos:R:3:initial_magmoms:R:1 pbc="T T T"
Si       2.26388646       0.84978414      -0.41556797       0.00000000
Si      -1.54803381       1.90324215      -0.15012629       0.00000000
Si      -0.66176496      -2.36696958       0.65800837       0.00000000
Si       0.09756081      -1.23870789      -2.24664182       0.00000000
Si       0.51702831       0.42898086       2.63337236       0.00000000
Si       3.25672938      -1.23129594      -0.14528572       0.00000000
Si       2.20470489      -2.37605940      -1.91847873       0.00000000
Si      -3.70228436      -0.69576219       0.72090143       0.00000000
Si      -2.26035968       1.88388963      -2.54339271       0.00000000
Si      -2.54144688      -2.23018245       2.07859513       0.00000000
