10
Lattice="16.28999089631971 0.0 0.0 0.0 16.28999089631971 0.0 0.0 0.0 34.33025523377368" Properties=species:S:1:pos:R:3:initial_magmoms:R:1 pbc="T T T"
Si      -2.27647604      -0.62985285      -0.36935942       0.00000000
Si       0.50327303       1.33942896      -1.93248548       0.00000000
Si       1.96279187      -1.43448111      -0.07792972       0.00000000
Si       0.11637739       1.53720585       1.92927701       0.00000000
Si       1.46540930       3.05654157       0.57743522       0.00000000
Si      -2.74891862       1.69829766      -1.25789558       0.00000000
Si       2.66788823       1.99684449      -1.15552271       0.00000000
Si       2.02016525      -1.91339082       2.21794312       0.00000000
Si       1.25854259       0.04663827       3.35967192       0.00000000
Si       3.69661802      -0.10798641      -1.00220370       0.00000000
