10
Lattice="16.28999089631971 0.0 0.0 0.0 16.28999089631971 0.0 0.0 0.0 34.33025523377368" Properties=species:S:1:pos:R:3:initial_magmoms:R:1 pbc="T T T"
Si       1.34470958       1.36831113       1.37322814       0.00000000
Si      -1.28412731       1.33602435      -1.46085960       0.00000000
Si      -1.36624520      -1.35169533       1.37775974       0.00000000
Si       1.56266326      -1.21902957      -1.41473001       0.00000000
Si      -2.72823581      -2.67866244      -0.00052525       0.00000000
Si       2.70482846      -2.70959715       0.01566490       0.00000000
Si      -2.71227161       2.71806795      -0.01702438       0.00000000
Si       2.70355784       0.01264104       2.73239804       0.00000000
Si      -0.01058428      -2.70231552       2.73813119       0.00000000
Si       2.69635766       2.74413195      -0.00322361       0.00000000
