10
Lattice="16.28999089631971 0.0 0.0 0.0 16.28999089631971 0.0 0.0 0.0 34.33025523377368" Properties=species:S:1:pos:R:3:initial_magmoms:R:1 pbc="T T T"
Si      -1.44245264       1.26003150      -1.39634958       0.00000000
Si       1.25992382      -1.48305789      -1.38690876       0.00000000
Si      -1.94921825      -0.88951545       1.09664629       0.00000000
Si       1.73934993       0.87807987       1.48976226       0.00000000
Si       2.63306820      -2.66364306       0.19856631       0.00000000
Si       2.74193427       2.60820819       0.15201446       0.00000000
Si      -0.09759237       2.58717780      -2.76866797       0.00000000
Si      -1.77318851       1.13836149       3.15797328       0.00000000
Si       2.61990588      -0.12719232      -2.76544093       0.00000000
Si      -2.77847699       2.70156618       0.02039218       0.00000000
