10
Lattice="16.28999089631971 0.0 0.0 0.0 16.28999089631971 0.0 0.0 0.0 34.33025523377368" Properties=species:S:1:pos:R:3:initial_magmoms:R:1 pbc="T T T"
Si       1.92082395      -1.03676076       1.24876373       0.00000000
Si       1.17457905      -1.83821247      -1.35027835       0.00000000
Si       0.08389513      -0.67725675       2.74223366       0.00000000
Si      -2.33795939      -1.57793085       0.31793267       0.00000000
Si      -1.23533816       1.22336271       2.36195721       0.00000000
Si      -2.20809551       1.58117256      -1.44231782       0.00000000
Si       2.17716339      -0.10808415      -2.68802616       0.00000000
Si      -1.00654511      -2.63617812       2.01927241       0.00000000
Si       2.66003157       0.94384260       2.19754953       0.00000000
Si      -0.57566856       2.61242730      -2.79297381       0.00000000
