10
Lattice="16.28999089631971 0.0 0.0 0.0 16.28999089631971 0.0 0.0 0.0 34.33025523377368" Properties=species:S:1:pos:R:3:initial_magmoms:R:1 pbc="T T T"
Si      -1.75994554       1.32835176       0.80411802       0.00000000
Si      -1.53747952      -1.37663532      -1.12338957       0.00000000
Si       0.89567307      -1.64647917       1.49474015       0.00000000
Si       1.79706393       0.84046626      -1.62766697       0.00000000
Si       2.09815200      -2.70617625      -0.23821777       0.00000000
Si      -0.06646320      -3.36359178      -1.01518054       0.00000000
Si      -0.52552843       2.23982613       2.66791003       0.00000000
Si       2.62853811       2.52003042      -0.15084723       0.00000000
Si       2.19537072      -0.38325483       2.90742549       0.00000000
Si      -3.67573166       0.26481024      -0.20285759       0.00000000
