10
Lattice="16.28999089631971 0.0 0.0 0.0 16.28999089631971 0.0 0.0 0.0 34.33025523377368" Properties=species:S:1:pos:R:3:initial_magmoms:R:1 pbc="T T T"
Si       1.36174300      -1.35417141       1.36164167       0.00000000
Si      -1.35608459       1.36036642       1.36188199       0.00000000
Si       1.38163309       1.34394129      -1.36254113       0.00000000
Si      -1.35012690      -1.36394541      -1.38954875       0.00000000
Si       2.71363381      -2.71218726       0.00336437       0.00000000
Si      -2.71286559      -2.71340901       0.00240312       0.00000000
Si      -2.71384299       2.71574730       0.00168218       0.00000000
Si      -2.71224657       0.00140094       2.71936970       0.00000000
Si       0.00203462      -2.71324611       2.71923238       0.00000000
Si       0.00184729       2.71669863       2.71933537       0.00000000
