10
Lattice="16.28999089631971 0.0 0.0 0.0 16.28999089631971 0.0 0.0 0.0 34.33025523377368" Properties=species:S:1:pos:R:3:initial_magmoms:R:1 pbc="T T T"
Si       1.35006959       1.33888162      -1.37475584       0.00000000
Si      -1.36649058      -1.37494183      -1.37389758       0.00000000
Si       1.52820074      -1.22241577       1.35264714       0.00000000
Si      -1.33756750       1.34143915       1.56171851       0.00000000
Si      -1.76204436      -0.67883851       2.80986430       0.00000000
Si      -0.04196141      -2.39800270       2.63055728       0.00000000
Si      -2.70536568       2.68059118      -0.00281508       0.00000000
Si       2.71175069       2.71649434       0.01963692       0.00000000
Si      -0.00293383       2.69616442      -2.73347944       0.00000000
Si       2.71077329      -0.01902509      -2.73375408       0.00000000
