10
Lattice="16.28999089631971 0.0 0.0 0.0 16.28999089631971 0.0 0.0 0.0 34.33025523377368" Properties=species:S:1:pos:R:3:initial_magmoms:R:1 pbc="T T T"
Si       1.34827443       1.35924479      -1.37005259       0.00000000
Si      -1.19065239       1.51487505       1.35680111       0.00000000
Si      -1.36650294      -1.35505107      -1.36785545       0.00000000
Si       1.42584741      -1.31869179       1.42618259       0.00000000
Si      -2.76081454       0.33928812       2.63471124       0.00000000
Si       2.70723510      -2.71477737      -0.00281508       0.00000000
Si       2.71787247       2.71754082       0.00964681       0.00000000
Si       2.70702333       0.00298107      -2.72894784       0.00000000
Si      -2.71174743      -2.72427444       0.01764576       0.00000000
Si      -0.00692325      -2.71230129      -2.72802093       0.00000000
