10
Lattice="10.86 0.0 0.0 0.0 10.86 0.0 0.0 0.0 10.86" Properties=species:S:1:pos:R:3:initial_magmoms:R:1 pbc="T T T"
Si      -1.35750000      -1.35750000       1.35750000       0.00000000
Si       1.35750000       1.35750000       1.35750000       0.00000000
Si       1.35750000      -1.35750000      -1.35750000       0.00000000
Si      -1.35750000       1.35750000      -1.35750000       0.00000000
Si      -1.91815836       2.40837876       0.85621326       0.00000000
Si       2.57100726      -2.59001226       0.15032412       0.00000000
Si      -0.13508754       2.56379622       2.60511852       0.00000000
Si      -2.59058784      -2.63714466       0.03325332       0.00000000
Si       0.07870242      -2.91862500      -2.48388834       0.00000000
Si       0.17692026       2.80942770      -2.61042906       0.00000000
