10
Lattice="10.86 0.0 0.0 0.0 10.86 0.0 0.0 0.0 10.86" Properties=species:S:1:pos:R:3:initial_magmoms:R:1 pbc="T T T"
Si       1.21540776      -1.40435004      -1.28047002       0.00000000
Si       1.21540776       1.31064996       1.43452998       0.00000000
Si      -1.49959224      -1.40435004       1.43452998       0.00000000
Si       2.57290776      -0.04685004      -2.63797002       0.00000000
Si       2.57290776       2.66814996       0.07702998       0.00000000
Si      -0.29384988       2.65483560      -2.64129318       0.00000000
Si       2.57290776      -2.76185004       0.07702998       0.00000000
Si       2.57290776      -0.04685004       2.79202998       0.00000000
Si      -0.14209224      -2.76185004      -2.63797002       0.00000000
Si       0.05350722       2.47439670       2.96237994       0.00000000
