10
Lattice="10.86 0.0 0.0 0.0 10.86 0.0 0.0 0.0 10.86" Properties=species:S:1:pos:R:3:initial_magmoms:R:1 pbc="T T T"
Si       1.29427308       1.25500332       1.31301744       0.00000000
Si      -1.42072692       1.25500332      -1.40198256       0.00000000
Si       1.31705736      -1.56575136      -1.24368720       0.00000000
Si      -1.42072692      -1.45999668       1.31301744       0.00000000
Si       2.65177308       2.61250332      -0.04448256       0.00000000
Si      -0.06322692       2.61250332       2.67051744       0.00000000
Si       2.59930842      -0.15286536       2.73051894       0.00000000
Si      -0.06322692       2.61250332      -2.75948256       0.00000000
Si      -2.77822692       2.61250332      -0.04448256       0.00000000
Si      -2.77822692      -0.10249668       2.67051744       0.00000000
