10
Lattice="10.86 0.0 0.0 0.0 10.86 0.0 0.0 0.0 10.86" Properties=species:S:1:pos:R:3:initial_magmoms:R:1 pbc="T T T"
Si       1.30953138       1.23755130       1.24832442       0.00000000
Si      -1.40546862      -1.47744870       1.24832442       0.00000000
Si       1.30953138      -1.47744870      -1.46667558       0.00000000
Si      -0.02097066       2.53119450      -2.45103684       0.00000000
Si      -0.17865786       2.69147724       2.47018302       0.00000000
Si       2.66703138       2.59505130      -0.10917558       0.00000000
Si       2.66703138      -0.11994870       2.60582442       0.00000000
Si      -0.04796862      -2.83494870       2.60582442       0.00000000
Si       2.66703138      -0.11994870      -2.82417558       0.00000000
Si       2.66703138      -2.83494870      -0.10917558       0.00000000
