10
Lattice="10.86 0.0 0.0 0.0 10.86 0.0 0.0 0.0 10.86" Properties=species:S:1:pos:R:3:initial_magmoms:R:1 pbc="T T T"
Si      -1.17993900      -1.28496606       1.35314514       0.00000000
Si       1.44077448      -1.27088064      -1.27602828       0.00000000
Si      -1.27422552       1.44411936      -1.27602828       0.00000000
Si       1.44077448       1.44411936       1.43897172       0.00000000
Si      -2.54189160      -2.57897850       0.06139158       0.00000000
Si       0.08327448      -2.62838064      -2.63352828       0.00000000
Si      -2.63172552       0.08661936      -2.63352828       0.00000000
Si      -2.43403008      -0.09562230       2.85450756       0.00000000
Si       2.79827448       0.08661936      -2.63352828       0.00000000
Si      -2.63172552       2.80161936       0.08147172       0.00000000
