10
Lattice="16.28999089631971 0.0 0.0 0.0 16.28999089631971 0.0 0.0 0.0 34.376317263855086" Properties=species:S:1:pos:R:3:initial_magmoms:R:1 pbc="T T T"
Si       1.35106002       1.36374993       1.35016499       0.00000000
Si       1.35353610      -1.35660025      -1.35944660       0.00000000
Si      -1.36062225       1.35928647      -1.35999662       0.00000000
Si      -1.35643572      -1.37073834       1.38560699       0.00000000
Si      -0.14999832       2.57183262       2.69122025       0.00000000
Si       2.62005102      -0.03544704       2.70954284       0.00000000
Si      -2.71342530      -2.71093417       0.00216571       0.00000000
Si       2.71598283      -2.71250396       0.00178757       0.00000000
Si      -0.00188964      -2.71280257      -2.71652124       0.00000000
Si       2.71329498       0.00182448      -2.71683062       0.00000000
