10
Lattice="16.28999089631971 0.0 0.0 0.0 16.28999089631971 0.0 0.0 0.0 34.376317263855086" Properties=species:S:1:pos:R:3:initial_magmoms:R:1 pbc="T T T"
Si       1.35164646      -1.36176850      -1.36298736       0.00000000
Si      -1.36246302       1.35421826      -1.36236859       0.00000000
Si       1.35698958       1.34019583       1.38344129       0.00000000
Si      -1.37051028      -1.35872227       1.36601248       0.00000000
Si      -0.09029547       2.63354038       2.78125188       0.00000000
Si       2.70837540      -2.71313803      -0.00068753       0.00000000
Si       2.71342530       2.71093417      -0.00216571       0.00000000
Si       2.71153566      -0.00186840      -2.71868695       0.00000000
Si      -2.71694394       2.71344283      -0.00085941       0.00000000
Si      -0.00301365       2.71280752      -2.71923697       0.00000000
