10
Lattice="16.28999089631971 0.0 0.0 0.0 16.28999089631971 0.0 0.0 0.0 34.376317263855086" Properties=species:S:1:pos:R:3:initial_magmoms:R:1 pbc="T T T"
Si      -0.86234373      -1.84783497      -1.20647190       0.00000000
Si      -1.77013656      -0.45074430       1.52579369       0.00000000
Si       0.23340312       2.33640954      -0.52080150       0.00000000
Si       1.06334604       1.47144312      -2.65151558       0.00000000
Si      -2.10867534      -2.68920926       0.94772122       0.00000000
Si      -2.24686341      -0.56325444      -2.80473092       0.00000000
Si       2.13239358       2.86770789       0.81069714       0.00000000
Si      -0.81479322       0.17749584       3.58349244       0.00000000
Si       1.81006335      -2.24573030       2.29393293       0.00000000
Si       3.58344162       1.41431409      -0.53984599       0.00000000
