10
Lattice="16.28999089631971 0.0 0.0 0.0 16.28999089631971 0.0 0.0 0.0 34.376317263855086" Properties=species:S:1:pos:R:3:initial_magmoms:R:1 pbc="T T T"
Si       1.21368645      -1.47771966      -1.39983880       0.00000000
Si       0.95371434      -0.33412419       2.16275283       0.00000000
Si      -2.34641160      -0.42176439      -0.17586934       0.00000000
Si       1.00240515       2.12551920      -0.60182652       0.00000000
Si       3.17091366       1.24032060      -0.08721277       0.00000000
Si      -0.50062428       1.28660049       3.20201824       0.00000000
Si       3.41221743      -1.07562870      -0.64280312       0.00000000
Si      -2.39521644      -2.00667225      -1.88495766       0.00000000
Si       0.61633215      -0.95441481      -3.67788986       0.00000000
Si       3.08806272       0.71882883       2.18815695       0.00000000
