10
Lattice="16.28999089631971 0.0 0.0 0.0 16.28999089631971 0.0 0.0 0.0 34.376317263855086" Properties=species:S:1:pos:R:3:initial_magmoms:R:1 pbc="T T T"
Si       1.35659862      -1.35226548       1.35786529       0.00000000
Si      -1.34412048      -1.34754138      -1.38539386       0.00000000
Si      -1.35705474       1.36226754       1.35879345       0.00000000
Si       1.35819504       1.35840681      -1.38565856       0.00000000
Si       2.71551042      -2.71098180      -0.00519083       0.00000000
Si      -2.71717200      -2.70985779      -0.00257823       0.00000000
Si      -0.00034209      -2.71119357       2.71631498       0.00000000
Si       2.71489140       0.00377928       2.71586809       0.00000000
Si      -2.71541105       0.00387702       2.71600559       0.00000000
Si       2.71283886       2.72033226      -0.00395328       0.00000000
