10
Lattice="16.28999089631971 0.0 0.0 0.0 16.28999089631971 0.0 0.0 0.0 34.376317263855086" Properties=species:S:1:pos:R:3:initial_magmoms:R:1 pbc="T T T"
Si      -1.35829278      -1.35604476      -1.35800280       0.00000000
Si       1.35824391       1.35653346      -1.35762466       0.00000000
Si       1.35733167      -1.35770634       1.35793404       0.00000000
Si      -1.35769005       1.35764118       1.35783091       0.00000000
Si       2.71401174      -0.00092853       2.71411489       0.00000000
Si      -0.00094482       2.71432125       2.71459616       0.00000000
Si      -2.71507059      -0.00192222       2.71456179       0.00000000
Si       2.71508688       2.71480995      -0.00024063       0.00000000
Si      -0.00161271      -2.71531494       2.71466492       0.00000000
Si      -2.71523349      -2.71497285       0.00044689       0.00000000
