10
Lattice="16.28999089631971 0.0 0.0 0.0 16.28999089631971 0.0 0.0 0.0 34.376317263855086" Properties=species:S:1:pos:R:3:initial_magmoms:R:1 pbc="T T T"
Si      -1.35581670      -1.35741312      -1.35707464       0.00000000
Si       1.35894438       1.35760860      -1.35673087       0.00000000
Si      -1.35597960       1.36021500       1.35838094       0.00000000
Si       1.36062225      -1.35928647       1.35999662       0.00000000
Si       2.71168227       0.00446346       2.71016162       0.00000000
Si      -2.71345788       2.71339272      -0.00010313       0.00000000
Si      -2.71362078       0.00034209      -2.71421802       0.00000000
Si       0.00166158      -2.71470244      -2.71456179       0.00000000
Si       0.00161271       2.71531494      -2.71466492       0.00000000
Si       2.71562445       2.71438641      -0.00055002       0.00000000
