10
Lattice="16.28999089631971 0.0 0.0 0.0 16.28999089631971 0.0 0.0 0.0 34.376317263855086" Properties=species:S:1:pos:R:3:initial_magmoms:R:1 pbc="T T T"
Si       1.33581258       1.35536058       1.37343777       0.00000000
Si      -1.35747828       1.35317772      -1.35848406       0.00000000
Si       1.35597960      -1.36021500      -1.35838094       0.00000000
Si      -1.36348929      -1.35029439       1.38130995       0.00000000
Si       2.56660353      -0.14766885       2.69283594       0.00000000
Si      -0.00009774       2.71274112      -2.71521494       0.00000000
Si       2.71492398      -0.00260640      -2.71511181       0.00000000
Si      -2.71500543       2.71539639       0.00474393       0.00000000
Si      -2.71376739      -2.71699281       0.00292199       0.00000000
Si      -2.71554300      -0.00229689      -2.71559308       0.00000000
