10
Lattice="16.28999089631971 0.0 0.0 0.0 16.28999089631971 0.0 0.0 0.0 34.376317263855086" Properties=species:S:1:pos:R:3:initial_magmoms:R:1 pbc="T T T"
Si      -1.89899046      -0.53129835      -1.33149864       0.00000000
Si       0.27173349      -0.89181234       2.22084884       0.00000000
Si       1.45104804      -1.45339380      -1.35054313       0.00000000
Si      -0.79814484       2.63627586      -0.12248289       0.00000000
Si      -2.13239358      -2.86770789      -0.81069714       0.00000000
Si       2.53441449      -2.62863585       0.42733224       0.00000000
Si       2.79337662       0.16534350      -2.46144882       0.00000000
Si      -0.38468835       0.86986971       3.62484718       0.00000000
Si       2.52493371      -1.50081399       2.52628259       0.00000000
Si      -1.06904754      -1.39626477      -3.46221273       0.00000000
