10
Lattice="16.28999089631971 0.0 0.0 0.0 16.28999089631971 0.0 0.0 0.0 34.376317263855086" Properties=species:S:1:pos:R:3:initial_magmoms:R:1 pbc="T T T"
Si      -0.07524351       0.74417607      -2.17880658       0.00000000
Si       2.20260348      -0.58782465       0.33850379       0.00000000
Si       0.18609696       1.88169048       1.40365457       0.00000000
Si      -1.06826562      -2.07958140       0.34950421       0.00000000
Si       0.25057278       0.70470540       3.45241547       0.00000000
Si       2.27154276      -0.40806450       2.72229646       0.00000000
Si       0.43476381      -1.24066269      -3.45434055       0.00000000
Si       2.52042138      -2.64735306      -0.66435708       0.00000000
Si      -2.30426937       1.33729497      -2.59726973       0.00000000
Si       0.99632898       2.91625209      -2.10871323       0.00000000
