10
Lattice="16.28999089631971 0.0 0.0 0.0 16.28999089631971 0.0 0.0 0.0 34.376317263855086" Properties=species:S:1:pos:R:3:initial_magmoms:R:1 pbc="T T T"
Si       2.16767772      -0.85664223      -0.28425793       0.00000000
Si       0.71661339       2.23472736       0.20924876       0.00000000
Si      -1.37894524      -0.69124986      -1.86085985       0.00000000
Si      -1.18905923      -0.26467992       2.18905073       0.00000000
Si      -2.65954517       1.60985925       1.24806727       0.00000000
Si       3.12302106      -0.22840209       1.77344082       0.00000000
Si       2.19405123       2.01323223       2.09699090       0.00000000
Si       1.82913894      -3.09510719      -0.86233040       0.00000000
Si      -2.23576082      -2.75306606      -1.12795635       0.00000000
Si      -1.23346740       3.44386890       0.69058622       0.00000000
