10
Lattice="16.28999089631971 0.0 0.0 0.0 16.28999089631971 0.0 0.0 0.0 34.376317263855086" Properties=species:S:1:pos:R:3:initial_magmoms:R:1 pbc="T T T"
Si      -0.59500854       1.31533605       1.81500181       0.00000000
Si      -1.44414108      -0.52145919      -1.76639367       0.00000000
Si       1.72499697      -1.45466442       0.75301365       0.00000000
Si      -0.16741233      -2.49137631      -0.67858888       0.00000000
Si       1.29239973       1.83076794      -1.73940825       0.00000000
Si       2.17754946      -0.40674501      -2.34701000       0.00000000
Si      -2.41671924       1.67475861      -1.92490296       0.00000000
Si       1.49830533       2.47764384       1.99953399       0.00000000
Si       2.78889687       2.19102129       0.00673776       0.00000000
Si      -2.53136826      -2.48629383       0.19216372       0.00000000
