10
Lattice="16.28999089631971 0.0 0.0 0.0 16.28999089631971 0.0 0.0 0.0 34.376317263855086" Properties=species:S:1:pos:R:3:initial_magmoms:R:1 pbc="T T T"
Si       2.25533421       0.39098281       0.30639629       0.00000000
Si      -1.03124985      -0.61442200       2.02304740       0.00000000
Si      -0.88431731      -1.99043830      -0.95483712       0.00000000
Si      -1.35650414       1.75840287      -1.07539493       0.00000000
Si      -2.71621808      -1.29521368       0.44555170       0.00000000
Si      -3.34773251       0.46037006      -0.92998303       0.00000000
Si      -1.20355570       3.28892982       0.89763490       0.00000000
Si       2.30413905       1.97589066       2.01548461       0.00000000
Si       0.02448387      -3.73633534       0.34503529       0.00000000
Si       2.95557615       1.79468070      -1.49100484       0.00000000
