10
Lattice="16.28999089631971 0.0 0.0 0.0 16.28999089631971 0.0 0.0 0.0 34.376317263855086" Properties=species:S:1:pos:R:3:initial_magmoms:R:1 pbc="T T T"
Si       0.30452526      -1.54849482      -1.68650307       0.00000000
Si      -1.05847533      -1.50097689       1.42262829       0.00000000
Si       1.66166145       1.21679784       1.22352742       0.00000000
Si      -1.34638479       1.29324681      -1.52538118       0.00000000
Si      -2.33623035       2.76315867      -0.02564475       0.00000000
Si      -2.33243478      -0.11631060       2.78621724       0.00000000
Si       0.59870637      -0.12292434      -3.59074585       0.00000000
Si      -2.87236683      -2.30700609      -0.02186335       0.00000000
Si       2.39663367      -2.66906763      -0.97326284       0.00000000
Si       0.39530943       2.56521888       2.78055545       0.00000000
