10
Lattice="16.28999089631971 0.0 0.0 0.0 16.28999089631971 0.0 0.0 0.0 34.376317263855086" Properties=species:S:1:pos:R:3:initial_magmoms:R:1 pbc="T T T"
Si       2.31163408       0.49402683       0.13853664       0.00000000
Si      -1.10868667       2.09191293      -0.13613029       0.00000000
Si      -1.06289548      -0.61721181       2.07217119       0.00000000
Si      -0.15294844      -1.53052695      -1.97302983       0.00000000
Si      -1.62343438       0.34401222      -2.91401329       0.00000000
Si      -3.12273340       0.87718392      -1.10382416       0.00000000
Si       1.20355570      -3.28892982      -0.89763490       0.00000000
Si       0.18449077      -2.35990786       2.92308864       0.00000000
Si       2.54075293       2.09517093       1.84955003       0.00000000
Si      -3.26331610      -1.21497336       1.54232871       0.00000000
