10
Lattice="16.28999089631971 0.0 0.0 0.0 16.28999089631971 0.0 0.0 0.0 34.376317263855086" Properties=species:S:1:pos:R:3:initial_magmoms:R:1 pbc="T T T"
Si       0.82165131       1.87742250      -1.23624666       0.00000000
Si      -1.66166145      -1.21679784      -1.22352742       0.00000000
Si      -1.26635202       1.34842104       1.55702803       0.00000000
Si       1.43956359      -1.34192133       1.54859552       0.00000000
Si       2.04156054      -1.79512542      -2.47052903       0.00000000
Si      -2.53878021       2.76864840       0.14960925       0.00000000
Si       2.68351686       2.72675052       0.15158933       0.00000000
Si      -2.72013678      -2.71777473       0.19910087       0.00000000
Si       2.74395276      -2.76284916       0.19214653       0.00000000
Si      -2.62573623       0.00112401       2.93069613       0.00000000
