10
Lattice="16.28999089631971 0.0 0.0 0.0 16.28999089631971 0.0 0.0 0.0 34.376317263855086" Properties=species:S:1:pos:R:3:initial_magmoms:R:1 pbc="T T T"
Si      -1.18470654       1.37438730      -1.49059233       0.00000000
Si       1.23132852       1.37845980       1.55308851       0.00000000
Si      -1.55799189      -1.28474343       1.46738830       0.00000000
Si       1.52906085      -1.34006427      -1.47010403       0.00000000
Si      -2.64352491       2.56021785      -0.00622212       0.00000000
Si      -2.46521457      -2.82993138      -0.02691667       0.00000000
Si      -2.53351854       0.01803303      -2.85701732       0.00000000
Si       1.51698996      -0.08808003       3.51642421       0.00000000
Si      -0.29206341      -1.71812259       3.47273189       0.00000000
Si       0.18386523      -2.70029556      -2.85777360       0.00000000
