10
Lattice="16.28999089631971 0.0 0.0 0.0 16.28999089631971 0.0 0.0 0.0 34.376317263855086" Properties=species:S:1:pos:R:3:initial_magmoms:R:1 pbc="T T T"
Si      -2.24255796      -0.73805918      -0.29728656       0.00000000
Si       1.08064602       0.30880953      -2.10252549       0.00000000
Si       0.72412308      -1.47714462       1.72840782       0.00000000
Si       0.62112141       2.25214137       0.53805842       0.00000000
Si      -0.11541465       2.11587552      -3.08183856       0.00000000
Si       2.92643334       2.01717441       1.27536208       0.00000000
Si      -3.48994421       1.00463688      -1.14820401       0.00000000
Si      -2.25474288      -2.28150314      -2.09496270       0.00000000
Si      -3.04614040      -1.57940021       1.75549637       0.00000000
Si       0.11370420       3.71701962      -1.37082517       0.00000000
