10
Lattice="16.28999089631971 0.0 0.0 0.0 16.28999089631971 0.0 0.0 0.0 34.376317263855086" Properties=species:S:1:pos:R:3:initial_magmoms:R:1 pbc="T T T"
Si       1.32089094      -1.29663513       1.47950940       0.00000000
Si      -1.38241827       1.43286840       1.44705126       0.00000000
Si       1.87927956       0.92077596      -1.32256908       0.00000000
Si      -1.02995154      -1.83570381      -1.40833804       0.00000000
Si       0.58503906       0.06460614      -3.47700284       0.00000000
Si       2.54703924      -2.73947301       0.06768701       0.00000000
Si       2.72161917       2.75063166       0.03161935       0.00000000
Si       3.63270258      -0.89436987      -1.04166728       0.00000000
Si      -2.71546155      -2.77583229      -0.05484401       0.00000000
Si      -0.03160260      -2.64495517       2.84760508       0.00000000
