10
Lattice="16.28999089631971 0.0 0.0 0.0 16.28999089631971 0.0 0.0 0.0 34.376317263855086" Properties=species:S:1:pos:R:3:initial_magmoms:R:1 pbc="T T T"
Si       1.35571896      -1.35091015      -1.35721214       0.00000000
Si      -1.35767376      -1.35525307       1.35676525       0.00000000
Si       1.35729909       1.35951453       1.35690275       0.00000000
Si      -1.35710361       1.36000323      -1.36439679       0.00000000
Si      -0.01127268      -2.70761696      -2.71495711       0.00000000
Si       2.71280628      -2.71258005      -0.00103129       0.00000000
Si      -0.00060273      -2.71263967       2.71480242       0.00000000
Si      -2.71590138      -2.71308352       0.00044689       0.00000000
Si       2.71458189       0.00198738       2.71449303       0.00000000
Si      -2.71515204       0.00203625       2.71425240       0.00000000
