10
Lattice="16.28999089631971 0.0 0.0 0.0 16.28999089631971 0.0 0.0 0.0 34.376317263855086" Properties=species:S:1:pos:R:3:initial_magmoms:R:1 pbc="T T T"
Si      -0.31781790       2.05952841       1.00286086       0.00000000
Si       0.08285094       0.52149177      -2.27536971       0.00000000
Si      -2.13434838      -1.05295302      -0.02540411       0.00000000
Si       2.06233029      -0.85240683       0.83768257       0.00000000
Si       0.32415471      -1.79445753      -2.83096006       0.00000000
Si       1.21306743       3.37129695      -0.29116757       0.00000000
Si       1.61474625       2.27454012      -2.34625372       0.00000000
Si      -2.52042138       2.64735306       0.66435708       0.00000000
Si      -2.08565757       1.40669037      -2.78998347       0.00000000
Si      -3.58868700       0.56777166       1.01386129       0.00000000
