10
Lattice="16.28999089631971 0.0 0.0 0.0 16.28999089631971 0.0 0.0 0.0 34.376317263855086" Properties=species:S:1:pos:R:3:initial_magmoms:R:1 pbc="T T T"
Si      -1.36150191      -1.35479043       1.35164317       0.00000000
Si      -1.35755973       1.35513252      -1.35906846       0.00000000
Si       1.35705474      -1.35912357      -1.35820905       0.00000000
Si       1.36453185       1.35122292       1.36223109       0.00000000
Si      -0.06279795       2.70327663       2.63773067       0.00000000
Si       2.71282257      -2.71394658       0.00237197       0.00000000
Si       2.71634121       2.71096551       0.00058440       0.00000000
Si      -2.71272483       2.71588509       0.00110004       0.00000000
Si       0.00102627       2.71394658      -2.71545557       0.00000000
Si      -2.71423980      -0.00164529      -2.71524931       0.00000000
