10
Lattice="16.28999089631971 0.0 0.0 0.0 16.28999089631971 0.0 0.0 0.0 34.376317263855086" Properties=species:S:1:pos:R:3:initial_magmoms:R:1 pbc="T T T"
Si       1.32701598       1.36647036       1.34913370       0.00000000
Si      -1.35979146       1.35449721      -1.35968724       0.00000000
Si       1.35516510      -1.36075257      -1.36016851       0.00000000
Si      -1.38062637      -1.35956340       1.37220022       0.00000000
Si       2.64992688      -0.01260846       2.63663063       0.00000000
Si      -2.71520091       2.71122615       0.00137505       0.00000000
Si       2.71410948       2.71397916      -0.00048127       0.00000000
Si       2.71272483      -2.71588509      -0.00110004       0.00000000
Si      -0.00174303       2.71295289      -2.71669312       0.00000000
Si       2.71375110      -0.00193851      -2.71655561       0.00000000
