10
Lattice="16.28999089631971 0.0 0.0 0.0 16.28999089631971 0.0 0.0 0.0 34.376317263855086" Properties=species:S:1:pos:R:3:initial_magmoms:R:1 pbc="T T T"
Si      -0.65642184       1.76168205       1.40399833       0.00000000
Si       2.25320022      -0.60900165       0.30543375       0.00000000
Si      -0.90761364      -2.14984017       0.55641538       0.00000000
Si      -0.27173349       0.89181234      -2.22084884       0.00000000
Si       2.26268100      -1.73682351      -1.79351660       0.00000000
Si      -3.21892029      -1.79839971       0.55194646       0.00000000
Si      -0.52154064       0.93009384       3.63247872       0.00000000
Si       1.17931455      -0.56158146      -3.57139197       0.00000000
Si      -2.83406904       2.45130291       0.70193041       0.00000000
Si      -0.31025934      -2.67314502       2.83446645       0.00000000
