10
Lattice="16.28999089631971 0.0 0.0 0.0 16.28999089631971 0.0 0.0 0.0 34.376317263855086" Properties=species:S:1:pos:R:3:initial_magmoms:R:1 pbc="T T T"
Si       1.53189531       1.75304835      -0.07088401       0.00000000
Si      -0.08285094      -0.52149177       2.27536971       0.00000000
Si       0.24130377      -2.31594930      -0.55559035       0.00000000
Si      -2.16850851       0.88519860      -0.51461376       0.00000000
Si      -3.17091366      -1.24032060       0.08721277       0.00000000
Si      -2.21719932      -1.57444479       2.24996560       0.00000000
Si      -1.95722721      -2.71804026      -1.31262603       0.00000000
Si      -0.40066884       1.53803664       3.27823058       0.00000000
Si       1.13021649       2.84980518       1.98420214       0.00000000
Si       3.67974810       0.82852569       0.15211529       0.00000000
