10
Lattice="16.28999089631971 0.0 0.0 0.0 16.28999089631971 0.0 0.0 0.0 34.376317263855086" Properties=species:S:1:pos:R:3:initial_magmoms:R:1 pbc="T T T"
Si      -2.20260348       0.58782465      -0.33850379       0.00000000
Si       0.31781790      -2.05952841      -1.00286086       0.00000000
Si       0.06893928       0.17976015       2.38379268       0.00000000
Si       1.53088533       1.31176854      -1.29402843       0.00000000
Si       3.16661310       1.05397929       0.34101326       0.00000000
Si      -2.01650652       2.46951513       1.06515079       0.00000000
Si       2.04045282       1.44678006       2.38461771       0.00000000
Si      -3.27086910      -1.49175675       0.01100043       0.00000000
Si       0.40066884      -1.53803664      -3.27823058       0.00000000
Si      -2.27784699       1.33200072      -2.51731037       0.00000000
