10
Lattice="16.28999089631971 0.0 0.0 0.0 16.28999089631971 0.0 0.0 0.0 34.376317263855086" Properties=species:S:1:pos:R:3:initial_magmoms:R:1 pbc="T T T"
Si       1.06903125      -0.83903274       1.88512954       0.00000000
Si      -0.28290843       2.29612437      -0.23221215       0.00000000
Si      -1.97151354      -1.26701991      -0.00082503       0.00000000
Si       1.12616028      -0.39280077      -2.04360445       0.00000000
Si       2.44833813      -2.33320041       0.60124212       0.00000000
Si      -2.04045282      -1.44678006      -2.38461771       0.00000000
Si      -2.05718265       2.33906481      -1.70300371       0.00000000
Si       2.62368369       1.41929883      -2.16649985       0.00000000
Si      -0.50956749      -0.13501152      -3.67864614       0.00000000
Si      -1.44357093      -3.10482513       1.53208456       0.00000000
