10
Lattice="16.28999089631971 0.0 0.0 0.0 16.28999089631971 0.0 0.0 0.0 34.376317263855086" Properties=species:S:1:pos:R:3:initial_magmoms:R:1 pbc="T T T"
Si       1.30438917      -1.42092783      -1.35644899       0.00000000
Si       1.36643778       1.34688978       1.37955676       0.00000000
Si      -1.35053874      -1.37124333       1.37622225       0.00000000
Si      -1.43956359       1.34192133      -1.54859552       0.00000000
Si      -2.70591561       2.69034237       0.00843252       0.00000000
Si       2.71467963       2.69285103      -0.00082159       0.00000000
Si      -2.70518256      -2.73316878      -0.00548303       0.00000000
Si       0.00785178       2.70008379       2.73941588       0.00000000
Si      -2.70671382      -0.01420488       2.73945025       0.00000000
Si       2.72350881      -0.01611081       2.73824708       0.00000000
