10
Lattice="16.28999089631971 0.0 0.0 0.0 16.28999089631971 0.0 0.0 0.0 34.376317263855086" Properties=species:S:1:pos:R:3:initial_magmoms:R:1 pbc="T T T"
Si      -1.03625577      -1.55478276      -1.37852547       0.00000000
Si       1.15802352      -1.41809337       1.43576207       0.00000000
Si       1.69295454       1.08742266      -1.24088262       0.00000000
Si      -2.07317943       1.97838792       0.26363212       0.00000000
Si      -2.28304350       0.06972120       1.89461741       0.00000000
Si      -2.35916667      -0.17570394      -2.66602240       0.00000000
Si       0.38341773       2.52680706      -2.63515245       0.00000000
Si      -0.79431669      -0.78960888       3.53766879       0.00000000
Si       1.60961490      -0.14512761       3.34670824       0.00000000
Si       2.95938801       2.32676586       0.30694631       0.00000000
