10
Lattice="16.28999089631971 0.0 0.0 0.0 16.28999089631971 0.0 0.0 0.0 34.376317263855086" Properties=species:S:1:pos:R:3:initial_magmoms:R:1 pbc="T T T"
Si       1.48872681      -0.85933008       1.64305138       0.00000000
Si      -0.88514973       2.23751295       0.60760175       0.00000000
Si       0.20986407       1.90866672      -1.63098528       0.00000000
Si       2.28304350      -0.06972120      -1.89461741       0.00000000
Si      -2.73580776      -0.51872247      -1.56539523       0.00000000
Si      -2.17754946       0.40674501       2.34701000       0.00000000
Si      -0.45255249      -1.04791941       3.10002365       0.00000000
Si      -1.49481927       0.97731855      -3.04856227       0.00000000
Si      -2.34496179      -2.08463130       1.66842111       0.00000000
Si       0.61134741       2.59776630       2.35374776       0.00000000
