10
Lattice="16.28999089631971 0.0 0.0 0.0 16.28999089631971 0.0 0.0 0.0 34.376317263855086" Properties=species:S:1:pos:R:3:initial_magmoms:R:1 pbc="T T T"
Si      -1.24598952       1.35114147       1.42143057       0.00000000
Si       1.47072636      -1.37582082       1.39618459       0.00000000
Si      -1.86186555      -0.84932802      -1.38783600       0.00000000
Si       0.86907150       1.66280568      -1.61131656       0.00000000
Si      -2.56285683       2.57697116      -0.12327354       0.00000000
Si       2.69964396       2.61333044      -0.00074253       0.00000000
Si      -2.59229286      -0.01181025       2.77852240       0.00000000
Si      -2.68351686      -2.72675052      -0.15158933       0.00000000
Si       0.12100212       2.70784827       2.77917555       0.00000000
Si       0.12248451      -2.72178207       2.77656295       0.00000000
