10
Lattice="16.28999089631971 0.0 0.0 0.0 16.28999089631971 0.0 0.0 0.0 34.376317263855086" Properties=species:S:1:pos:R:3:initial_magmoms:R:1 pbc="T T T"
Si      -1.37528325      -1.92003714       0.38800571       0.00000000
Si      -0.77268357       1.69673205       1.54095366       0.00000000
Si      -0.78340239       0.97036272      -2.09616587       0.00000000
Si       2.34719352      -0.73448352       0.05005195       0.00000000
Si      -3.27148812      -0.71985510       1.13861302       0.00000000
Si       2.30716899      -2.71225242      -1.17089240       0.00000000
Si      -2.32202547       0.51807087       2.92772945       0.00000000
Si       0.58929075       0.06354729      -3.77500301       0.00000000
Si      -0.57875112       3.35061584      -1.80372637       0.00000000
Si      -0.21765069      -3.51173304       1.71792304       0.00000000
