10
Lattice="16.28999089631971 0.0 0.0 0.0 16.28999089631971 0.0 0.0 0.0 34.376317263855086" Properties=species:S:1:pos:R:3:initial_magmoms:R:1 pbc="T T T"
Si       1.35747828       1.35521488       1.35755590       0.00000000
Si      -1.35741312       1.35751829      -1.35776216       0.00000000
Si       1.35796698      -1.35776637      -1.35779654       0.00000000
Si      -1.35767376      -1.35959085       1.35628398       0.00000000
Si      -2.71451673       2.71438243       0.00010313       0.00000000
Si      -0.00190593      -2.71234503       2.71662437       0.00000000
Si       0.00094482       2.71500145      -2.71432115       0.00000000
Si      -2.71456560      -2.71500030      -0.00027501       0.00000000
Si       2.71520729       0.00024215      -2.71476804       0.00000000
Si       2.71556422       2.71478968      -0.00013751       0.00000000
