10
Lattice="16.28999089631971 0.0 0.0 0.0 16.28999089631971 0.0 0.0 0.0 34.376317263855086" Properties=species:S:1:pos:R:3:initial_magmoms:R:1 pbc="T T T"
Si       1.34799980       1.33233352       1.37446906       0.00000000
Si       1.35235737      -1.35996757      -1.35824343       0.00000000
Si      -1.36102950       1.35384447      -1.35759028       0.00000000
Si      -1.37670048      -1.35670957       1.37440031       0.00000000
Si      -0.08948097       2.55639996       2.79287108       0.00000000
Si       2.71092383      -2.71482316       0.00354076       0.00000000
Si       2.71330217       2.71369620       0.00309387       0.00000000
Si       2.71191752      -0.00209516      -2.71521494       0.00000000
Si      -0.00294356       2.71341927      -2.71528369       0.00000000
Si      -0.00267713      -2.71663135      -2.71500868       0.00000000
