10
Lattice="16.28999089631971 0.0 0.0 0.0 16.28999089631971 0.0 0.0 0.0 34.376317263855086" Properties=species:S:1:pos:R:3:initial_magmoms:R:1 pbc="T T T"
Si      -1.35747828      -1.35521488      -1.35755590       0.00000000
Si       1.36102950      -1.35384447       1.35759028       0.00000000
Si       1.35808594       1.35957480      -1.35769341       0.00000000
Si      -1.35990549       1.36193685       1.36027163       0.00000000
Si       2.71338687      -2.71381204      -0.00065315       0.00000000
Si       0.00048870      -2.71298125      -2.71535244       0.00000000
Si      -2.71515204      -2.71480573      -0.00127192       0.00000000
Si      -2.71489140       0.00230341      -2.71531807       0.00000000
Si       2.71548177       0.00231644      -2.71497430       0.00000000
Si       2.71410363       2.71703679      -0.00085941       0.00000000
