10
Lattice="16.28999089631971 0.0 0.0 0.0 16.28999089631971 0.0 0.0 0.0 34.376317263855086" Properties=species:S:1:pos:R:3:initial_magmoms:R:1 pbc="T T T"
Si       0.92670552       1.49622021      -1.54896335       0.00000000
Si      -1.09546992       1.68634080       1.22826650       0.00000000
Si      -1.83550833      -1.04890577      -1.06174753       0.00000000
Si       1.32753726      -1.37613752       1.47862936       0.00000000
Si      -1.60590078       0.38837966       3.11109283       0.00000000
Si      -0.10241523      -1.42323191       3.36310575       0.00000000
Si      -2.83364550       0.74429010      -2.44037613       0.00000000
Si       3.12712614       2.09398176      -1.01912087       0.00000000
Si       0.48488814       3.44458566       1.81541433       0.00000000
Si      -1.06282476      -2.74563782      -2.60270119       0.00000000
