10
Lattice="16.28999089631971 0.0 0.0 0.0 16.28999089631971 0.0 0.0 0.0 34.376317263855086" Properties=species:S:1:pos:R:3:initial_magmoms:R:1 pbc="T T T"
Si      -1.95629868       1.25940271      -0.05462400       0.00000000
Si      -0.93139704      -2.11463815      -0.71530281       0.00000000
Si       0.85828005      -1.51471083       1.81472680       0.00000000
Si       0.99870147       0.96468403      -2.12535138       0.00000000
Si       2.93955398       1.19811973      -0.63334962       0.00000000
Si       1.14542876      -3.01687609      -1.40014818       0.00000000
Si       2.77888571      -2.35222780       0.46569623       0.00000000
Si      -2.52372825       1.56477505       2.19184797       0.00000000
Si       2.94976781       1.44092218       1.85975980       0.00000000
Si       1.96521324      -0.13777756       3.31513155       0.00000000
