10
Lattice="16.28999089631971 0.0 0.0 0.0 16.28999089631971 0.0 0.0 0.0 34.376317263855086" Properties=species:S:1:pos:R:3:initial_magmoms:R:1 pbc="T T T"
Si      -1.31087259       1.37298636      -1.36706440       0.00000000
Si      -1.35412254      -1.34431596       1.36229640       0.00000000
Si       1.36270804       1.37168316       1.35775872       0.00000000
Si       1.39212452      -1.27586538      -1.43962941       0.00000000
Si       2.16706589       0.56053890      -2.81513117       0.00000000
Si       0.37554707       2.27854746      -2.88206190       0.00000000
Si      -2.69840592      -2.68947900      -0.00862846       0.00000000
Si       0.00353487      -2.70231552       2.71820224       0.00000000
Si      -2.70917361       0.01145187       2.71723970       0.00000000
Si       2.73315968      -2.69669547      -0.02636321       0.00000000
