10
Lattice="16.28999089631971 0.0 0.0 0.0 16.28999089631971 0.0 0.0 0.0 34.376317263855086" Properties=species:S:1:pos:R:3:initial_magmoms:R:1 pbc="T T T"
Si       1.34428338       1.34516304       1.37092486       0.00000000
Si      -1.33275006       1.31401656      -1.44633279       0.00000000
Si       1.38450339      -1.31790987      -1.39924409       0.00000000
Si      -1.36925595      -1.37384973       1.36645594       0.00000000
Si      -0.42166665      -2.33098497      -2.51961943       0.00000000
Si      -2.17508967      -0.51583914      -2.80052123       0.00000000
Si       2.69840592       2.68947900       0.00862846       0.00000000
Si      -2.72872161       2.68309332       0.00021657       0.00000000
Si       2.69266375      -2.72676681       0.00326919       0.00000000
Si      -0.01076769       2.70093087       2.72586816       0.00000000
