10
Lattice="16.28999089631971 0.0 0.0 0.0 16.28999089631971 0.0 0.0 0.0 34.376317263855086" Properties=species:S:1:pos:R:3:initial_magmoms:R:1 pbc="T T T"
Si      -1.35258543       1.35808101       1.35587146       0.00000000
Si      -1.35601770      -1.35746199      -1.35683400       0.00000000
Si       1.35845242       1.35751086      -1.35697151       0.00000000
Si       1.36022803      -1.35718506       1.36154356       0.00000000
Si      -2.71397331       2.71357191       0.00024063       0.00000000
Si      -2.71354977       0.00013032      -2.71445866       0.00000000
Si       0.00137813      -2.71472035      -2.71411489       0.00000000
Si      -0.02594020       2.70361872       2.72514970       0.00000000
Si       0.00128528       2.71500543      -2.71428678       0.00000000
Si       2.71651714       2.71298547       0.00013751       0.00000000
