10
Lattice="16.28999089631971 0.0 0.0 0.0 16.28999089631971 0.0 0.0 0.0 34.376317263855086" Properties=species:S:1:pos:R:3:initial_magmoms:R:1 pbc="T T T"
Si      -0.27681597      -2.03597307       1.11970603       0.00000000
Si       2.00233422       1.23118191      -0.07143403       0.00000000
Si      -1.37930688       1.49416767       1.28388741       0.00000000
Si      -0.52828470      -0.26727003      -2.56389030       0.00000000
Si      -2.44833813       2.33320041      -0.60124212       0.00000000
Si       2.94083926      -0.06862977      -1.80396701       0.00000000
Si      -1.32217785       1.94039964      -2.64484658       0.00000000
Si       2.67818418      -2.33069175      -0.95102135       0.00000000
Si      -2.47401117      -2.66408289       0.90134754       0.00000000
Si      -0.84424554      -1.73060073       3.36617800       0.00000000
