10
Lattice="16.28999089631971 0.0 0.0 0.0 16.28999089631971 0.0 0.0 0.0 34.376317263855086" Properties=species:S:1:pos:R:3:initial_magmoms:R:1 pbc="T T T"
Si      -1.15204835       1.49175675      -1.45532220       0.00000000
Si       1.58439798      -1.20234861      -1.44054038       0.00000000
Si       0.93678903       1.76660163       1.48650154       0.00000000
Si      -0.81018315      -1.93780953       1.34655548       0.00000000
Si      -2.56866326      -2.72634327      -0.02915113       0.00000000
Si      -2.47869359       0.14621904      -2.82460044       0.00000000
Si       0.23411988      -2.56904703      -2.81892834       0.00000000
Si      -2.58563744       2.82406698      -0.05441774       0.00000000
Si      -2.55701591       0.57495555       2.86134874       0.00000000
Si       2.78280441       2.72857500       0.04180163       0.00000000
