10
Lattice="16.28999089631971 0.0 0.0 0.0 16.28999089631971 0.0 0.0 0.0 34.376317263855086" Properties=species:S:1:pos:R:3:initial_magmoms:R:1 pbc="T T T"
Si      -1.35643572      -1.35632169      -1.35700588       0.00000000
Si       1.35765747       1.35829278      -1.35721214       0.00000000
Si      -1.35607734       1.35959598       1.35906846       0.00000000
Si       1.35887922      -1.35930276       1.35903409       0.00000000
Si       0.00107514      -2.71456560      -2.71414927       0.00000000
Si      -2.71394658       0.00060273      -2.71497430       0.00000000
Si      -2.71435383       2.71523349       0.00092816       0.00000000
Si       0.00096111       2.71541268      -2.71425240       0.00000000
Si       2.71559187       0.00100998      -2.71435553       0.00000000
Si       2.71477737       2.71524978      -0.00013751       0.00000000
