10
Lattice="16.28999089631971 0.0 0.0 0.0 16.28999089631971 0.0 0.0 0.0 34.376317263855086" Properties=species:S:1:pos:R:3:initial_magmoms:R:1 pbc="T T T"
Si       1.25377614      -1.39683492       1.40506400       0.00000000
Si       1.36006839       1.35568638      -1.36102791       0.00000000
Si      -1.35718506      -1.36295172      -1.36164669       0.00000000
Si      -1.40711391       1.27156482       1.41314244       0.00000000
Si      -0.28445598      -2.40455061       2.89902521       0.00000000
Si       2.71905905       2.69371440       0.01570999       0.00000000
Si       2.68736523      -2.72914515       0.00415954       0.00000000
Si      -2.71665072       2.71094922       0.01887261       0.00000000
Si      -2.70899442      -2.72269431       0.00000000       0.00000000
Si       2.71153307      -0.00417024      -2.72023388       0.00000000
