10
Lattice="16.28999089631971 0.0 0.0 0.0 16.28999089631971 0.0 0.0 0.0 34.376317263855086" Properties=species:S:1:pos:R:3:initial_magmoms:R:1 pbc="T T T"
Si      -0.76206249      -0.74749923      -2.11548537       0.00000000
Si       0.88293429       2.19568023       0.16768777       0.00000000
Si      -2.12530743       0.26520120       1.05236279       0.00000000
Si       2.07545907      -1.14491007       0.39244026       0.00000000
Si       1.07494452      -2.67211386       1.87306345       0.00000000
Si       1.98627458      -2.58600492      -1.46230060       0.00000000
Si       1.24978509       2.64386700      -2.10874761       0.00000000
Si      -1.57664394       1.59918930       2.89177180       0.00000000
Si      -0.76204620       3.35688030       1.32689221       0.00000000
Si       1.19926980      -1.30230405      -3.26403315       0.00000000
