10
Lattice="16.28999089631971 0.0 0.0 0.0 16.28999089631971 0.0 0.0 0.0 34.376317263855086" Properties=species:S:1:pos:R:3:initial_magmoms:R:1 pbc="T T T"
Si      -0.04002453      -1.97776890      -1.22094434       0.00000000
Si       1.39299048       1.60717140      -0.99072602       0.00000000
Si       1.42843752      -0.86724702       1.76288729       0.00000000
Si      -2.34719352       0.73448352      -0.05005195       0.00000000
Si       3.52931388       0.01335780       1.06521954       0.00000000
Si       0.29582640      -0.23366376       3.71941648       0.00000000
Si      -1.17654525      -1.46963493      -3.25220769       0.00000000
Si      -0.85462227      -3.73545990       0.34393525       0.00000000
Si       3.07795870       2.28796308       0.58676969       0.00000000
Si      -3.72247677      -1.18555362       0.33795376       0.00000000
