10
Lattice="16.28999089631971 0.0 0.0 0.0 16.28999089631971 0.0 0.0 0.0 34.376317263855086" Properties=species:S:1:pos:R:3:initial_magmoms:R:1 pbc="T T T"
Si      -1.42995249      -0.04709439       1.88447639       0.00000000
Si       0.25265790      -2.33764758      -0.31186212       0.00000000
Si      -1.32753726       1.37613752      -1.47862936       0.00000000
Si       2.24339268       0.88608219       0.40595016       0.00000000
Si       0.43372125      -0.32202072       3.35970249       0.00000000
Si      -2.93343804       1.76451718       1.63246347       0.00000000
Si       1.41276654      -3.13952283       1.64040440       0.00000000
Si       2.51054705      -1.22425866       2.67485712       0.00000000
Si       3.04697512       1.72742322      -1.64683278       0.00000000
Si      -2.42300718       3.06247832      -0.25036286       0.00000000
