10
Lattice="16.28999089631971 0.0 0.0 0.0 16.28999089631971 0.0 0.0 0.0 34.376317263855086" Properties=species:S:1:pos:R:3:initial_magmoms:R:1 pbc="T T T"
Si      -1.15194735       1.39750281      -1.52084350       0.00000000
Si       1.62233739      -1.27739664      -1.19760281       0.00000000
Si       0.89963154       0.74267739       2.09180007       0.00000000
Si      -1.59187509      -1.96273323       0.20629240       0.00000000
Si      -0.37403469      -0.63941508       3.49397444       0.00000000
Si       2.18271339       2.94954885      -0.52747051       0.00000000
Si       0.46692027      -2.27603880      -2.97135302       0.00000000
Si      -1.10483667      -2.72196126       2.37440660       0.00000000
Si       0.31903965       3.22447518      -2.00269661       0.00000000
Si       3.16175868       0.13204674      -2.24676860       0.00000000
