10
Lattice="16.28999089631971 0.0 0.0 0.0 16.28999089631971 0.0 0.0 0.0 34.376317263855086" Properties=species:S:1:pos:R:3:initial_magmoms:R:1 pbc="T T T"
Si       2.07682580      -0.90223794      -0.68484538       0.00000000
Si      -1.86367374       0.27492633      -1.47522610       0.00000000
Si       0.93139704       2.11463815       0.71530281       0.00000000
Si       1.78967709       0.59992732       2.53002961       0.00000000
Si      -0.43372125       0.32202072      -3.35970249       0.00000000
Si       0.97904529      -2.81750211      -1.71929809       0.00000000
Si      -1.02490164       3.37404086       0.66067881       0.00000000
Si      -1.28308185      -2.20687146       2.61927058       0.00000000
Si       1.80967143       1.20810291      -2.95375234       0.00000000
Si      -2.18271339      -2.94954885       0.52747051       0.00000000
