10
Lattice="16.28999089631971 0.0 0.0 0.0 16.28999089631971 0.0 0.0 0.0 34.376317263855086" Properties=species:S:1:pos:R:3:initial_magmoms:R:1 pbc="T T T"
Si       1.35393300       1.35653346       1.35772779       0.00000000
Si       1.35699063      -1.35705474      -1.35731527       0.00000000
Si      -1.35807249       1.35806472      -1.35707464       0.00000000
Si      -1.35826797      -1.35848826       1.35721214       0.00000000
Si       0.00311991      -2.71397916       2.71284297       0.00000000
Si      -0.00134360      -2.71409319      -2.71414927       0.00000000
Si       2.71415777      -2.71454931       0.00000000       0.00000000
Si      -2.71405209      -0.00032580      -2.71511181       0.00000000
Si       2.71432067       2.71529865       0.00020626       0.00000000
Si      -0.00144129       2.71547784      -2.71435553       0.00000000
