10
Lattice="16.28999089631971 0.0 0.0 0.0 16.28999089631971 0.0 0.0 0.0 34.376317263855086" Properties=species:S:1:pos:R:3:initial_magmoms:R:1 pbc="T T T"
Si      -1.10211298       1.77192846       1.04273741       0.00000000
Si       0.50261166       0.41863671      -2.28513259       0.00000000
Si       2.07785466      -0.70162659       0.93073931       0.00000000
Si      -1.88554306      -1.54888578       0.06338996       0.00000000
Si      -0.92833452       0.88371621       3.21329368       0.00000000
Si      -3.07806785       1.79170452      -0.16136252       0.00000000
Si       2.76661215      -2.41254900      -0.55851234       0.00000000
Si       2.16684693      -1.33068123      -2.73302188       0.00000000
Si      -1.61814760       0.37328535      -3.43055212       0.00000000
Si       3.62592594       1.09014309       0.73534421       0.00000000
