10
Lattice="16.28999089631971 0.0 0.0 0.0 16.28999089631971 0.0 0.0 0.0 34.376317263855086" Properties=species:S:1:pos:R:3:initial_magmoms:R:1 pbc="T T T"
Si       0.90533793      -1.35057132      -1.72912972       0.00000000
Si      -2.17377248      -0.91973340       0.39584351       0.00000000
Si      -0.60128671       2.18794248      -0.96236554       0.00000000
Si       1.56206928      -0.67170186       2.14532403       0.00000000
Si      -2.79236894       0.53203140       2.37358290       0.00000000
Si       1.21905075      -3.52880496      -0.72262497       0.00000000
Si       1.88544207      -2.97509157       1.49014543       0.00000000
Si       2.72307387      -0.17948322      -2.74574112       0.00000000
Si      -1.89518090      -3.14932941       1.23486676       0.00000000
Si      -1.48969949       1.62215820      -3.21236551       0.00000000
