10
Lattice="16.28999089631971 0.0 0.0 0.0 16.28999089631971 0.0 0.0 0.0 34.376317263855086" Properties=species:S:1:pos:R:3:initial_magmoms:R:1 pbc="T T T"
Si       1.35717366      -1.35754344       1.35745277       0.00000000
Si       1.35904701       1.35705474      -1.35621523       0.00000000
Si      -1.35719293       1.35757602       1.35765903       0.00000000
Si      -1.35858830      -1.35736425      -1.35710901       0.00000000
Si       2.71333245       0.00084708      -2.71414927       0.00000000
Si      -0.00215843       2.71423980       2.71442428       0.00000000
Si       2.71372341      -0.00151497       2.71497430       0.00000000
Si       2.71455420      -2.71454931       0.00006875       0.00000000
Si      -2.71494257      -0.00079821      -2.71476804       0.00000000
Si       2.71484742       2.71487511       0.00006875       0.00000000
