10
Lattice="16.28999089631971 0.0 0.0 0.0 16.28999089631971 0.0 0.0 0.0 34.376317263855086" Properties=species:S:1:pos:R:3:initial_magmoms:R:1 pbc="T T T"
Si      -0.45135517       2.27460528      -0.47844985       0.00000000
Si       1.81257527      -0.76680288       1.32073885       0.00000000
Si      -2.10087636      -0.88060482       0.69766775       0.00000000
Si       0.60437855      -0.84730806      -2.15646196       0.00000000
Si      -2.13632340       1.59381360      -2.05594556       0.00000000
Si      -0.30442263       0.89858898      -3.45633437       0.00000000
Si      -1.39269416      -3.10870215       1.34806803       0.00000000
Si      -3.52931388      -0.01335780      -1.06521954       0.00000000
Si       2.23305275      -2.99651292       0.54981513       0.00000000
Si       1.12816721      -0.74088549       3.54045327       0.00000000
