10
Lattice="10.86 0.0 0.0 0.0 10.86 0.0 0.0 0.0 10.86" Properties=species:S:1:pos:R:3:initial_magmoms:R:1 pbc="T T T"
Si       1.35750000       1.35750000       1.35750000       0.00000000
Si       1.35750000      -1.35750000      -1.35750000       0.00000000
Si      -1.35750000      -1.35750000       1.35750000       0.00000000
Si      -1.35750000       1.35750000      -1.35750000       0.00000000
Si      -2.37762324      -0.01261932      -2.56541436       0.00000000
Si       2.52304950       0.10982718       2.74458264       0.00000000
Si      -0.14714214      -2.51249358      -2.81810484       0.00000000
Si      -2.46681642      -0.16190088       2.93519736       0.00000000
Si      -0.05192166      -2.66022216       2.76795336       0.00000000
Si       2.71500000       2.71500000       0.00000000       0.00000000
