10
Lattice="16.28999089631971 0.0 0.0 0.0 16.28999089631971 0.0 0.0 0.0 34.64500226677339" Properties=species:S:1:pos:R:3:initial_magmoms:R:1 pbc="T T T"
Si       0.30307545       2.21962653      -0.58796066       0.00000000
Si       0.66466458      -0.42668397       2.18634338       0.00000000
Si      -2.30023664      -0.46766961      -0.32036251       0.00000000
Si       1.53163467      -1.45489248      -1.11362958       0.00000000
Si      -1.79341497       2.97584091       0.24282696       0.00000000
Si      -0.09145206       1.60432065      -3.13457762       0.00000000
Si       1.51700625      -0.31446216      -3.22593654       0.00000000
Si      -0.07451046      -2.62148454       2.62699341       0.00000000
Si      -0.37271520       1.20700755       3.53774174       0.00000000
Si       3.37225806      -1.75752810       0.42880143       0.00000000
