10
Lattice="16.28999089631971 0.0 0.0 0.0 16.28999089631971 0.0 0.0 0.0 34.64500226677339" Properties=species:S:1:pos:R:3:initial_magmoms:R:1 pbc="T T T"
Si       1.35926610      -1.35482327      -1.35874310       0.00000000
Si      -1.35369235       1.35971368      -1.35964387       0.00000000
Si      -1.33883587      -1.35718532       1.38022302       0.00000000
Si       1.36764730       1.34916102       1.37090351       0.00000000
Si       2.71223368      -2.71422377       0.00249444       0.00000000
Si      -2.71372816       2.71405125       0.00256373       0.00000000
Si      -2.71327204      -2.71565729       0.00038110       0.00000000
Si       2.71702294       2.71276434       0.00138580       0.00000000
Si      -2.71363042       0.00081470      -2.71651615       0.00000000
Si       0.00133648      -2.71435409      -2.71623899       0.00000000
