10
Lattice="16.28999089631971 0.0 0.0 0.0 16.28999089631971 0.0 0.0 0.0 34.64500226677339" Properties=species:S:1:pos:R:3:initial_magmoms:R:1 pbc="T T T"
Si      -1.35648459       1.35930276      -1.36432095       0.00000000
Si       1.36003581      -1.35808915      -1.36414773       0.00000000
Si      -1.36163223      -1.37048584       1.37131925       0.00000000
Si       1.36814823       1.37585340       1.37228931       0.00000000
Si       2.70946683      -2.71484972      -0.00575107       0.00000000
Si       2.71008585       2.71495656      -0.00588965       0.00000000
Si      -2.71658556       2.71345788      -0.00675578       0.00000000
Si      -2.71332756      -2.71715245      -0.00817623       0.00000000
Si      -2.71430496      -0.00066789      -2.72140109       0.00000000
Si       0.00096111       2.71479366      -2.72136645       0.00000000
