10
Lattice="16.28999089631971 0.0 0.0 0.0 16.28999089631971 0.0 0.0 0.0 34.64500226677339" Properties=species:S:1:pos:R:3:initial_magmoms:R:1 pbc="T T T"
Si      -1.33069752      -1.35074466       1.38039624       0.00000000
Si       1.35614250      -1.35263430      -1.35604079       0.00000000
Si      -1.35581670       1.36071184      -1.35683763       0.00000000
Si       1.35169533       1.34666661       1.37949547       0.00000000
Si      -2.55855627       0.09830771       2.80063426       0.00000000
Si      -0.00099369      -2.71327284      -2.71339809       0.00000000
Si       2.71397916       0.00167777      -2.71325951       0.00000000
Si      -2.71536381       2.71376413       0.00433063       0.00000000
Si      -2.71593396       0.00195258      -2.71343274       0.00000000
Si      -0.00097740       2.71648456      -2.71322487       0.00000000
