10
Lattice="16.28999089631971 0.0 0.0 0.0 16.28999089631971 0.0 0.0 0.0 34.64500226677339" Properties=species:S:1:pos:R:3:initial_magmoms:R:1 pbc="T T T"
Si       0.57049209       1.89258849      -1.21773787       0.00000000
Si      -2.21501646      -0.48008259      -0.66975756       0.00000000
Si       0.40635405       0.84916512       2.26220726       0.00000000
Si       1.24216137      -1.44648684      -1.56148577       0.00000000
Si       3.09063654      -0.74973096      -0.22858785       0.00000000
Si       2.37759066      -0.61613667       2.19126297       0.00000000
Si      -2.24557650      -2.42660401       0.84076538       0.00000000
Si       2.94896241       1.48783086      -1.36709255       0.00000000
Si      -3.29173659       1.35733167       0.40888055       0.00000000
Si      -0.76018914       1.76407668      -3.20802507       0.00000000
