10
Lattice="16.28999089631971 0.0 0.0 0.0 16.28999089631971 0.0 0.0 0.0 34.64500226677339" Properties=species:S:1:pos:R:3:initial_magmoms:R:1 pbc="T T T"
Si       1.35521397       1.35596331      -1.35694156       0.00000000
Si       1.35272160      -1.35951453       1.35766911       0.00000000
Si      -1.36023129       1.35011520       1.36165329       0.00000000
Si      -1.36018242      -1.35861858      -1.35662976       0.00000000
Si       2.71282257      -2.71366965       0.00010394       0.00000000
Si       2.71293660      -0.00125433      -2.71492247       0.00000000
Si       2.71274112       2.71572219       0.00041574       0.00000000
Si      -0.00317655       2.71450044      -2.71457602       0.00000000
Si      -0.00206883      -2.71653669      -2.71443744       0.00000000
Si      -2.71646013      -2.71487511       0.00176690       0.00000000
