10
Lattice="16.28999089631971 0.0 0.0 0.0 16.28999089631971 0.0 0.0 0.0 34.64500226677339" Properties=species:S:1:pos:R:3:initial_magmoms:R:1 pbc="T T T"
Si      -1.51987329      -0.94218102       1.49760035       0.00000000
Si       0.76033575       1.86201216       1.19116513       0.00000000
Si      -1.56090780       0.83974950      -1.56449989       0.00000000
Si       1.71792711      -1.53896517      -0.71306384       0.00000000
Si       0.03914487       1.52217018      -3.10336246       0.00000000
Si      -2.47262652      -1.28943495      -2.05687493       0.00000000
Si      -2.47927284       1.05153579       2.37134780       0.00000000
Si      -1.23632955       2.94031242       1.68852906       0.00000000
Si      -2.74929588      -2.35102167       0.09925799       0.00000000
Si      -0.11898216      -1.97669376       3.08129358       0.00000000
