10
Lattice="16.28999089631971 0.0 0.0 0.0 16.28999089631971 0.0 0.0 0.0 34.64500226677339" Properties=species:S:1:pos:R:3:initial_magmoms:R:1 pbc="T T T"
Si      -1.35120663      -1.34877942      -1.37959941       0.00000000
Si       1.46680047      -1.22857551       1.38299462       0.00000000
Si       1.36655181       1.36332639      -1.37544200       0.00000000
Si      -1.25296164       1.40323689       1.48187151       0.00000000
Si       2.41065936       0.64853748       2.65893612       0.00000000
Si       0.62367894       2.36972259       2.89064202       0.00000000
Si      -2.70560610      -2.68736130      -0.00287554       0.00000000
Si      -2.67973758       2.72802114      -0.00176690       0.00000000
Si       2.74255182      -2.69115687      -0.00505817       0.00000000
Si       0.00772146      -2.70537804      -2.73799606       0.00000000
