10
Lattice="16.28999089631971 0.0 0.0 0.0 16.28999089631971 0.0 0.0 0.0 34.64500226677339" Properties=species:S:1:pos:R:3:initial_magmoms:R:1 pbc="T T T"
Si       0.63079767       1.75563846      -1.39865417       0.00000000
Si       1.50881238      -1.90959525      -0.18559338       0.00000000
Si       1.22043051       1.35360126       1.73159283       0.00000000
Si      -2.03395311      -0.87560379      -1.34990862       0.00000000
Si       1.90654902       0.29305710      -2.78670696       0.00000000
Si      -1.80090837      -2.08067283       2.44042997       0.00000000
Si       3.38871096      -0.83280996      -1.26430077       0.00000000
Si      -0.84506004      -2.43164088      -2.78261885       0.00000000
Si      -0.33857136       2.98983402       2.31255519       0.00000000
Si      -3.29678649      -1.88579556       0.48471850       0.00000000
