10
Lattice="16.28999089631971 0.0 0.0 0.0 16.28999089631971 0.0 0.0 0.0 34.64500226677339" Properties=species:S:1:pos:R:3:initial_magmoms:R:1 pbc="T T T"
Si       1.67987367       0.96174531      -1.33019561       0.00000000
Si      -0.29528883      -2.31396192       0.35833346       0.00000000
Si      -1.84062339       0.30263562      -1.54243101       0.00000000
Si      -0.38836989       1.30702815       2.02084411       0.00000000
Si      -2.70759348       1.33084413       1.75754195       0.00000000
Si       2.27502882       2.71810053       0.13584313       0.00000000
Si      -2.66142762      -2.36120292       0.50637164       0.00000000
Si       0.74059227      -2.75079456       2.39171907       0.00000000
Si       0.45054882       3.41286903       1.45585310       0.00000000
Si      -2.52275085      -2.01847761      -1.96894587       0.00000000
