10
Lattice="16.28999089631971 0.0 0.0 0.0 16.28999089631971 0.0 0.0 0.0 34.64500226677339" Properties=species:S:1:pos:R:3:initial_magmoms:R:1 pbc="T T T"
Si       1.69246584      -0.91914696      -1.47431890       0.00000000
Si      -1.96084359      -1.41543810      -0.19480896       0.00000000
Si      -0.58440375       1.97309367      -1.31121013       0.00000000
Si       0.45613629       0.22395492       2.50445397       0.00000000
Si      -1.14886854       0.63780237      -3.17272179       0.00000000
Si      -2.39181183      -1.25097426      -2.48990306       0.00000000
Si       0.84779676      -0.44049789      -3.67008572       0.00000000
Si      -1.03078233       2.02414653       3.08340692       0.00000000
Si      -2.64921012       2.79567351      -0.47096442       0.00000000
Si      -3.66679755      -0.48861855       1.24929948       0.00000000
