10
Lattice="16.28999089631971 0.0 0.0 0.0 16.28999089631971 0.0 0.0 0.0 34.64500226677339" Properties=species:S:1:pos:R:3:initial_magmoms:R:1 pbc="T T T"
Si      -1.48691862       1.80019161       0.57895296       0.00000000
Si      -1.11666321      -1.90664676       1.07652476       0.00000000
Si       2.34382149      -0.38426481       0.80566998       0.00000000
Si      -0.45613629      -0.22395492      -2.50445397       0.00000000
Si      -0.47442996      -3.81669813      -0.36141687       0.00000000
Si      -0.61506153       3.89575350      -0.29437875       0.00000000
Si      -2.41697988      -1.63939302      -2.69926293       0.00000000
Si      -3.55609071       1.58441427      -0.85985479       0.00000000
Si      -1.73091024       2.04305922       3.01948686       0.00000000
Si       2.20165866      -1.74364902       2.90876137       0.00000000
