10
Lattice="16.28999089631971 0.0 0.0 0.0 16.28999089631971 0.0 0.0 0.0 34.64500226677339" Properties=species:S:1:pos:R:3:initial_magmoms:R:1 pbc="T T T"
Si      -1.78473240      -0.91629621       1.28779010       0.00000000
Si       1.25296164      -1.40323689      -1.48187151       0.00000000
Si      -1.42677594       1.32478425      -1.48363841       0.00000000
Si       1.87664058       0.96648570       1.40877051       0.00000000
Si       2.71976211      -2.63181240      -0.09887689       0.00000000
Si      -2.75421546      -2.60934849      -0.08110400       0.00000000
Si      -3.39319071       1.00248660       1.37914902       0.00000000
Si       2.67998193       2.74720605      -0.03221987       0.00000000
Si      -2.65463469       2.77383662      -0.06340039       0.00000000
Si       2.61951345      -0.03991050      -2.85731351       0.00000000
