10
Lattice="16.28999089631971 0.0 0.0 0.0 16.28999089631971 0.0 0.0 0.0 34.64500226677339" Properties=species:S:1:pos:R:3:initial_magmoms:R:1 pbc="T T T"
Si      -0.83891871      -2.10584088       0.56499101       0.00000000
Si       1.82448000      -0.69476850      -1.32000997       0.00000000
Si       0.87589701       1.00870938       1.95020291       0.00000000
Si      -1.52355483       1.45730340      -1.25037348       0.00000000
Si      -0.76277925       0.28445598       3.45431653       0.00000000
Si       1.78610076       1.22214096      -2.83566038       0.00000000
Si      -0.45983412      -2.06581635       2.95522034       0.00000000
Si      -0.45054882      -3.41286903      -1.45585310       0.00000000
Si      -3.15814230      -2.08202490       0.30168885       0.00000000
Si       1.41665985       3.27646376       1.35368493       0.00000000
