10
Lattice="16.28999089631971 0.0 0.0 0.0 16.28999089631971 0.0 0.0 0.0 34.64500226677339" Properties=species:S:1:pos:R:3:initial_magmoms:R:1 pbc="T T T"
Si      -1.82448000       0.69476850       1.32000997       0.00000000
Si      -0.59515515      -1.75635522      -1.46603874       0.00000000
Si       1.74078198      -1.12155021       1.21212537       0.00000000
Si      -0.03837924       1.91690946      -1.51565041       0.00000000
Si      -2.27502882      -2.71810053      -0.13584313       0.00000000
Si      -2.66339871      -1.41107238       1.88500098       0.00000000
Si      -0.46890765       0.60774732      -3.66960069       0.00000000
Si       3.68597088      -0.86237631      -0.18126275       0.00000000
Si      -0.94858299       1.70347788       3.27021288       0.00000000
Si       1.78434144       3.45727787      -0.47411712       0.00000000
