10
Lattice="16.28999089631971 0.0 0.0 0.0 16.28999089631971 0.0 0.0 0.0 34.64500226677339" Properties=species:S:1:pos:R:3:initial_magmoms:R:1 pbc="T T T"
Si      -1.49675778      -1.38912975       1.08681433       0.00000000
Si       2.04276600      -0.23811093       1.15115013       0.00000000
Si      -0.37908459      -0.04002453      -2.39022933       0.00000000
Si      -0.30294513       2.35027233       0.49909618       0.00000000
Si       2.93884632       1.83909213       0.32625217       0.00000000
Si       1.33573113       3.07452573      -1.00501743       0.00000000
Si       0.45983412       2.06581635      -2.95522034       0.00000000
Si      -3.08460924      -0.05092254       2.14445755       0.00000000
Si      -2.69830818      -0.01620855      -2.65353150       0.00000000
Si       2.85014727      -2.48129280       0.85756822       0.00000000
