10
Lattice="16.28999089631971 0.0 0.0 0.0 16.28999089631971 0.0 0.0 0.0 34.64500226677339" Properties=species:S:1:pos:R:3:initial_magmoms:R:1 pbc="T T T"
Si       1.34943102      -1.35676056       1.35839665       0.00000000
Si       1.35531171       1.35777965      -1.35728801       0.00000000
Si      -1.35938421      -1.35738552      -1.35728801       0.00000000
Si      -1.36003581       1.35808915       1.36414773       0.00000000
Si       0.01286910      -2.69415327       2.73085918       0.00000000
Si       2.71340901       0.00007005      -2.71454138       0.00000000
Si       2.71578735      -2.71259355       0.00027716       0.00000000
Si      -2.71722087      -2.71169760      -0.00006929       0.00000000
Si      -0.00237834       2.71564889      -2.71440280       0.00000000
Si      -0.00158013      -2.71542801      -2.71467996       0.00000000
