10
Lattice="16.28999089631971 0.0 0.0 0.0 16.28999089631971 0.0 0.0 0.0 34.64500226677339" Properties=species:S:1:pos:R:3:initial_magmoms:R:1 pbc="T T T"
Si       1.88879292       0.90059265      -1.33975763       0.00000000
Si      -1.85670162       1.67163093      -0.15583331       0.00000000
Si      -0.27321588       1.07403228       2.27039220       0.00000000
Si      -0.88251075      -1.95971518      -1.35759982       0.00000000
Si       0.56739699      -0.89090499       3.27887414       0.00000000
Si       0.42290469       2.06161353      -2.80894906       0.00000000
Si      -1.25532369      -2.43127340       2.23734085       0.00000000
Si       2.63798631      -1.57647941       1.99520680       0.00000000
Si      -2.30687577      -0.68472571      -2.80991912       0.00000000
Si      -2.62669734       1.14658794       2.55818840       0.00000000
