10
Lattice="16.28999089631971 0.0 0.0 0.0 16.28999089631971 0.0 0.0 0.0 34.64500226677339" Properties=species:S:1:pos:R:3:initial_magmoms:R:1 pbc="T T T"
Si       1.57092615      -1.22751570       1.30476616       0.00000000
Si      -0.35663697      -1.43625576      -1.88191757       0.00000000
Si      -1.91819637       0.43616638       1.39615973       0.00000000
Si       0.60750297       2.22786112      -0.78588767       0.00000000
Si      -2.60366328      -0.82969761      -2.38600264       0.00000000
Si       3.57078429      -1.23080628       0.01638710       0.00000000
Si      -0.94413582       1.36626673       3.41842428       0.00000000
Si       0.37602207       3.77495500       1.00817013       0.00000000
Si       2.80346013       2.19023122      -1.76970235       0.00000000
Si      -0.86609043       2.93963638      -2.56030174       0.00000000
