10
Lattice="16.28999089631971 0.0 0.0 0.0 16.28999089631971 0.0 0.0 0.0 34.64500226677339" Properties=species:S:1:pos:R:3:initial_magmoms:R:1 pbc="T T T"
Si       1.60350615       0.87333948      -1.42650877       0.00000000
Si      -1.36671471       1.62782712       1.19064546       0.00000000
Si       1.79141130      -0.20724138       1.69649742       0.00000000
Si      -1.15211025      -1.77305247      -1.30625590       0.00000000
Si       0.09490554       2.10572685      -2.77194818       0.00000000
Si       0.99157230      -2.40712443       2.68211364       0.00000000
Si       3.13817076       2.05609122      -0.06603341       0.00000000
Si      -2.61799848      -0.61203159      -2.77544733       0.00000000
Si      -2.53400724       0.55192149       2.91129046       0.00000000
Si      -3.00561903       2.61237843      -0.17769432       0.00000000
