10
Lattice="16.28999089631971 0.0 0.0 0.0 16.28999089631971 0.0 0.0 0.0 34.64500226677339" Properties=species:S:1:pos:R:3:initial_magmoms:R:1 pbc="T T T"
Si      -0.80547534      -0.61950870       2.12356660       0.00000000
Si       1.43091360      -1.84961547      -0.42173385       0.00000000
Si       1.36000323       2.01505671       0.06575625       0.00000000
Si      -2.35041894       0.03976389      -0.88469527       0.00000000
Si       2.59820613      -0.77370984      -2.14237885       0.00000000
Si      -2.86324443       1.83456351       0.67595902       0.00000000
Si       3.31063299       0.91828359      -0.61276650       0.00000000
Si       2.51983494      -1.78694784       1.73727461       0.00000000
Si      -1.82736333       1.39773087       2.70934463       0.00000000
Si       0.95930181       0.21084147      -3.51071862       0.00000000
