10
Lattice="16.28999089631971 0.0 0.0 0.0 16.28999089631971 0.0 0.0 0.0 34.64500226677339" Properties=species:S:1:pos:R:3:initial_magmoms:R:1 pbc="T T T"
Si       1.10234430       1.47141054      -1.46742454       0.00000000
Si      -0.69182001       0.37761849       2.22570012       0.00000000
Si       1.64998152      -1.70567703      -0.09128963       0.00000000
Si      -2.34579258      -0.25702362      -0.95973639       0.00000000
Si      -1.10467377      -1.55253474      -2.70324710       0.00000000
Si       0.59987925      -0.00040725      -3.27804266       0.00000000
Si       3.15877761      -0.56083212       1.43361099       0.00000000
Si      -2.28514491      -1.35365013       2.53279360       0.00000000
Si       0.36629694      -3.63095955       0.46549051       0.00000000
Si      -1.40411655       2.63435364       2.24028568       0.00000000
