10
Lattice="16.28999089631971 0.0 0.0 0.0 16.28999089631971 0.0 0.0 0.0 34.64500226677339" Properties=species:S:1:pos:R:3:initial_magmoms:R:1 pbc="T T T"
Si       0.72127233       1.80727776       1.43695913       0.00000000
Si       0.14216283       1.35938421      -2.10309139       0.00000000
Si      -1.92445173      -1.10351718       1.19360557       0.00000000
Si       1.89710082      -1.83467754      -0.02293500       0.00000000
Si       1.13982759      -0.70328817      -3.07103865       0.00000000
Si       2.00474514       0.40141818       2.90673606       0.00000000
Si      -0.71133543      -2.33021934       2.90065240       0.00000000
Si      -3.31832187      -0.16299774      -1.83223661       0.00000000
Si       3.47025870      -0.88202205       1.52307972       0.00000000
Si       0.79364880      -3.57576903       1.47162840       0.00000000
