10
Lattice="16.28999089631971 0.0 0.0 0.0 16.28999089631971 0.0 0.0 0.0 34.64500226677339" Properties=species:S:1:pos:R:3:initial_magmoms:R:1 pbc="T T T"
Si       1.35483930       1.35627282       1.35659511       0.00000000
Si      -1.35959598      -1.35927018       1.35614473       0.00000000
Si       1.35286821      -1.36031274      -1.36193045       0.00000000
Si      -1.35812988       1.35571896      -1.36414773       0.00000000
Si       2.71301805      -0.00182448       2.71370990       0.00000000
Si      -0.00216657       2.71331127       2.71391777       0.00000000
Si       2.71399545      -2.71523349       0.00045039       0.00000000
Si       2.71368594       2.71661814      -0.00062361       0.00000000
Si      -2.71511946      -2.71542897      -0.00093542       0.00000000
Si      -2.71678104      -0.00158013       2.71377919       0.00000000
