10
Lattice="16.28999089631971 0.0 0.0 0.0 16.28999089631971 0.0 0.0 0.0 34.64500226677339" Properties=species:S:1:pos:R:3:initial_magmoms:R:1 pbc="T T T"
Si       1.56475224       0.83168595      -1.56307944       0.00000000
Si       0.93118527      -0.48845565       2.11701869       0.00000000
Si      -1.08830232      -1.77683175      -1.37457588       0.00000000
Si      -1.31028615       1.73612304       1.24462240       0.00000000
Si      -0.61686972      -2.14617492       2.60208364       0.00000000
Si       0.11277567       2.06858565      -2.90041192       0.00000000
Si       2.73421134       2.40650541      -0.09225969       0.00000000
Si      -3.25658277       0.40957947       1.62131772       0.00000000
Si       2.48585400      -2.14496946       1.65041954       0.00000000
Si      -2.57046426      -0.65096469      -2.89698206       0.00000000
