10
Lattice="16.28999089631971 0.0 0.0 0.0 16.28999089631971 0.0 0.0 0.0 34.64500226677339" Properties=species:S:1:pos:R:3:initial_magmoms:R:1 pbc="T T T"
Si      -1.24123284      -1.37226960       1.45827825       0.00000000
Si       2.28885903       0.09464490       0.59031652       0.00000000
Si      -0.22716405      -1.31624829      -1.97098993       0.00000000
Si      -0.13931208       2.41377075      -0.37115212       0.00000000
Si       1.80587682       2.67294465      -1.76454024       0.00000000
Si       3.30761934       0.90337824      -1.34914643       0.00000000
Si       2.27442609       1.87374096       2.23657866       0.00000000
Si      -0.91624734       0.14273298      -3.63027859       0.00000000
Si      -1.31426091      -0.31701969       3.54952105       0.00000000
Si       0.55671075       3.39794739       1.62668770       0.00000000
