10
Lattice="16.28999089631971 0.0 0.0 0.0 16.28999089631971 0.0 0.0 0.0 34.64500226677339" Properties=species:S:1:pos:R:3:initial_magmoms:R:1 pbc="T T T"
Si      -0.89567307       1.56352723       1.49026223       0.00000000
Si       0.03056004       1.94652142      -1.51052294       0.00000000
Si       1.84197546      -1.14538411       1.18437471       0.00000000
Si      -2.02944241      -1.38506769      -0.33307724       0.00000000
Si      -1.90692532      -0.69894363      -2.65030951       0.00000000
Si       2.24557650       2.42660401      -0.84076538       0.00000000
Si      -2.02339393       0.02606563       2.84122926       0.00000000
Si       2.91020850      -2.20901589      -0.71697872       0.00000000
Si       0.75352653      -2.63540664       2.71574845       0.00000000
Si       0.71964333       2.70009682       2.73895022       0.00000000
