10
Lattice="16.28999089631971 0.0 0.0 0.0 16.28999089631971 0.0 0.0 0.0 34.64500226677339" Properties=species:S:1:pos:R:3:initial_magmoms:R:1 pbc="T T T"
Si       2.24702631      -0.60655815       0.50408506       0.00000000
Si      -0.32778738      -1.43197245      -1.90855960       0.00000000
Si      -1.50537519      -0.92308914       1.64349054       0.00000000
Si      -0.31348476       2.48665940      -0.23745698       0.00000000
Si      -3.47552037      -0.27293895       0.54617877       0.00000000
Si       2.60366328       0.82969761       2.38600264       0.00000000
Si       3.40260633       0.06538806      -1.49361617       0.00000000
Si      -1.93090257      -0.19653885      -3.23982920       0.00000000
Si      -1.54469925      -3.25770678       1.32274693       0.00000000
Si      -1.22386770      -3.50917551      -1.08366163       0.00000000
