10
Lattice="16.28999089631971 0.0 0.0 0.0 16.28999089631971 0.0 0.0 0.0 34.64500226677339" Properties=species:S:1:pos:R:3:initial_magmoms:R:1 pbc="T T T"
Si      -1.68684579       1.31514057       1.05521807       0.00000000
Si      -0.65915856      -0.43678377      -2.25504446       0.00000000
Si       2.27393739       0.76663998      -0.18791460       0.00000000
Si       0.60830118      -1.98522972       1.24555782       0.00000000
Si       2.58914889      -0.74824857      -1.93838896       0.00000000
Si      -0.31284945      -2.72287350      -2.49115028       0.00000000
Si       1.16719479       0.33405903      -3.52648211       0.00000000
Si       2.19662505      -1.27826001       2.83552180       0.00000000
Si      -2.30180958       3.02873454      -0.49445375       0.00000000
Si       1.78996149      -3.08796498      -1.60645501       0.00000000
