10
Lattice="16.28999089631971 0.0 0.0 0.0 16.28999089631971 0.0 0.0 0.0 34.64500226677339" Properties=species:S:1:pos:R:3:initial_magmoms:R:1 pbc="T T T"
Si       0.68769864       1.83979260       1.38466940       0.00000000
Si      -1.87058070      -0.79908966       1.39034079       0.00000000
Si       1.66048857      -1.84427561       0.08172761       0.00000000
Si      -0.01945026      -0.32019624      -3.28368979       0.00000000
Si       1.92324457       0.41462937       2.82403840       0.00000000
Si       3.27619008      -0.92249781       1.51754691       0.00000000
Si      -0.78423318      -2.31033644       2.82415272       0.00000000
Si      -2.80740231      -2.55473531       0.20017205       0.00000000
Si       0.66090159      -3.52040651       1.43164112       0.00000000
Si       1.50908931       3.56853627      -0.02092559       0.00000000
