10
Lattice="16.28999089631971 0.0 0.0 0.0 16.28999089631971 0.0 0.0 0.0 34.64500226677339" Properties=species:S:1:pos:R:3:initial_magmoms:R:1 pbc="T T T"
Si       1.23400008      -1.46476422       1.38927576       0.00000000
Si      -1.46551356       1.28344023       1.38365634       0.00000000
Si      -1.57315788      -0.95265549      -1.54601473       0.00000000
Si       1.74894327       0.78688845      -1.45299285       0.00000000
Si       2.59545312      -0.09264123       2.75538786       0.00000000
Si      -2.67660990      -2.69374698      -0.05145132       0.00000000
Si       2.75752233       2.60283249      -0.26104331       0.00000000
Si      -0.12469995       2.62034424       2.75687760       0.00000000
Si       2.71568961      -2.72186352      -0.02640297       0.00000000
Si      -2.74898637       2.68929981      -0.08612059       0.00000000
