10
Lattice="16.28999089631971 0.0 0.0 0.0 16.28999089631971 0.0 0.0 0.0 34.64500226677339" Properties=species:S:1:pos:R:3:initial_magmoms:R:1 pbc="T T T"
Si       1.35577744       1.35500220      -1.35915884       0.00000000
Si       1.35483500      -1.35949824       1.35801556       0.00000000
Si      -1.36287027       1.35532800       1.35708014       0.00000000
Si      -1.35876519      -1.35988920      -1.35839665       0.00000000
Si      -0.00100998       2.71226871      -2.71585789       0.00000000
Si       2.71324352      -0.00224802      -2.71582325       0.00000000
Si      -2.71383255       2.71538010      -0.00110864       0.00000000
Si       2.71499958       2.71435383      -0.00045039       0.00000000
Si      -2.71466334      -2.71507059      -0.00100471       0.00000000
Si       2.71468193      -2.71645524       0.00041574       0.00000000
