10
Lattice="16.28999089631971 0.0 0.0 0.0 16.28999089631971 0.0 0.0 0.0 34.64500226677339" Properties=species:S:1:pos:R:3:initial_magmoms:R:1 pbc="T T T"
Si       1.35571972       1.35687555       1.35652582       0.00000000
Si       1.35347007      -1.35980775      -1.35978245       0.00000000
Si      -1.35903877      -1.35819504       1.35680298       0.00000000
Si      -1.35630205       1.35770634      -1.36317767       0.00000000
Si      -0.00051964      -2.69667918      -2.70559950       0.00000000
Si      -0.00174636       2.71412577       2.71319022       0.00000000
Si       2.71343583      -0.00107514       2.71436815       0.00000000
Si       2.71337067       2.71555929      -0.00051968       0.00000000
Si       2.71415259      -2.71495656      -0.00090077       0.00000000
Si      -0.00131005      -2.71583622       2.71381383       0.00000000
