10
Lattice="16.28999089631971 0.0 0.0 0.0 16.28999089631971 0.0 0.0 0.0 34.64500226677339" Properties=species:S:1:pos:R:3:initial_magmoms:R:1 pbc="T T T"
Si       1.34561916       1.33626870      -1.38178204       0.00000000
Si       1.50860061      -1.23238737       1.34543941       0.00000000
Si      -1.37096640      -1.37865528      -1.38167811       0.00000000
Si      -1.22062599       1.58343687       1.51554647       0.00000000
Si      -0.09490554      -2.10572685       2.77194818       0.00000000
Si       2.70687672       2.69915526      -0.01565955       0.00000000
Si      -2.70278793       2.70930393      -0.00685971       0.00000000
Si      -2.71290402      -2.71775844      -0.00349915       0.00000000
Si      -0.00534312       2.69632080      -2.73997083       0.00000000
Si       2.70848943      -0.01905930      -2.73886218       0.00000000
