10
Lattice="16.28999089631971 0.0 0.0 0.0 16.28999089631971 0.0 0.0 0.0 34.64500226677339" Properties=species:S:1:pos:R:3:initial_magmoms:R:1 pbc="T T T"
Si       1.22036535      -2.03167251      -0.06499406       0.00000000
Si       0.38307564       1.45319832       1.84709933       0.00000000
Si      -1.79141130       0.20724138      -1.69649742       0.00000000
Si      -0.79983900      -2.19988305       0.98561622       0.00000000
Si       1.34675946       2.26333260      -1.76253083       0.00000000
Si      -0.18790515       1.08058086      -3.12300618       0.00000000
Si       0.65702457       3.52826739       0.07209629       0.00000000
Si      -3.15812601       1.83506850      -0.50585196       0.00000000
Si      -1.53194418       2.37395799       2.79900594       0.00000000
Si       0.66055950      -0.23643306       3.92815649       0.00000000
