10
Lattice="16.28999089631971 0.0 0.0 0.0 16.28999089631971 0.0 0.0 0.0 34.64500226677339" Properties=species:S:1:pos:R:3:initial_magmoms:R:1 pbc="T T T"
Si      -1.91501982       0.92075967       0.95190661       0.00000000
Si       1.50395796       1.81071495       0.20648433       0.00000000
Si      -0.38307564      -1.45319832      -1.84709933       0.00000000
Si       0.27748386      -1.68963138       2.08105716       0.00000000
Si       0.27394893       2.07506907      -1.77500304       0.00000000
Si       0.92978433       2.41647489       2.42951679       0.00000000
Si      -2.82877479       2.07386361      -0.82333894       0.00000000
Si       0.96368382       0.81013428      -3.60963016       0.00000000
Si       3.69830960       0.93084318       0.66133882       0.00000000
Si      -1.41255477       2.39257746       2.76252473       0.00000000
