10
Lattice="16.28999089631971 0.0 0.0 0.0 16.28999089631971 0.0 0.0 0.0 34.64500226677339" Properties=species:S:1:pos:R:3:initial_magmoms:R:1 pbc="T T T"
Si      -0.91375497       1.15310394      -1.77524555       0.00000000
Si       1.91501982      -0.92075967      -0.95190661       0.00000000
Si      -1.70455302      -1.55212749       0.57479555       0.00000000
Si       0.50246505       1.47181779       1.81061812       0.00000000
Si      -0.59987925       0.00040725       3.27804266       0.00000000
Si       2.84480415       1.49571522       1.47761017       0.00000000
Si       2.19250368      -2.61039105       1.12915054       0.00000000
Si      -2.79347436      -1.61479512      -1.58421290       0.00000000
Si       3.41897778       0.88995528      -0.74542229       0.00000000
Si       0.63430002       2.81082321      -2.26031050       0.00000000
