10
Lattice="16.28999089631971 0.0 0.0 0.0 16.28999089631971 0.0 0.0 0.0 34.64500226677339" Properties=species:S:1:pos:R:3:initial_magmoms:R:1 pbc="T T T"
Si      -0.82139067      -1.72874367       1.40559499       0.00000000
Si       1.80807175       1.05454944       1.28270564       0.00000000
Si      -1.78813701       1.78000830      -0.02099488       0.00000000
Si       0.60946659      -0.34632540      -2.55240268       0.00000000
Si       2.74433462      -0.73316403      -1.73464159       0.00000000
Si      -0.45711369       1.75392801      -2.95542822       0.00000000
Si       0.41806656       2.26391904       2.80883616       0.00000000
Si      -2.30308020      -0.47164437       2.82127372       0.00000000
Si      -0.77955795       3.59595234       1.17095465       0.00000000
Si      -1.50908931      -3.56853627       0.02092559       0.00000000
