10
Lattice="16.28999089631971 0.0 0.0 0.0 16.28999089631971 0.0 0.0 0.0 34.64500226677339" Properties=species:S:1:pos:R:3:initial_magmoms:R:1 pbc="T T T"
Si       1.35679410       1.35562122       1.35579828       0.00000000
Si      -1.35892809      -1.35876519       1.35593686       0.00000000
Si      -1.36112724       1.35492075      -1.36238083       0.00000000
Si       1.35902583      -1.35806472      -1.36387057       0.00000000
Si       2.71358152      -0.00164529       2.71249732       0.00000000
Si      -0.00097740       2.71340901       2.71325951       0.00000000
Si      -2.71399545       2.71523349      -0.00045039       0.00000000
Si      -2.71604799      -0.00166158       2.71353667       0.00000000
Si      -0.00096111      -2.71653669       2.71325951       0.00000000
Si      -2.71477737      -2.71573848      -0.00055432       0.00000000
