10
Lattice="16.28999089631971 0.0 0.0 0.0 16.28999089631971 0.0 0.0 0.0 34.64500226677339" Properties=species:S:1:pos:R:3:initial_magmoms:R:1 pbc="T T T"
Si       0.63177900       0.89471196      -2.06179453       0.00000000
Si       0.64735517      -2.28305979      -0.41577490       0.00000000
Si       1.62170764       0.70739325       1.66656412       0.00000000
Si      -1.85114673       1.28247912       0.96808584       0.00000000
Si       1.10353903       3.11850873      -1.40166829       0.00000000
Si       3.64513904      -0.08760762       0.44245157       0.00000000
Si       1.39862749       3.30501294       1.03588615       0.00000000
Si      -0.33687720      -3.53688480       1.34672128       0.00000000
Si      -1.10143206       0.83769696      -3.58340388       0.00000000
Si       3.07829591      -2.38459536       0.04715187       0.00000000
