10
Lattice="16.28999089631971 0.0 0.0 0.0 16.28999089631971 0.0 0.0 0.0 34.64500226677339" Properties=species:S:1:pos:R:3:initial_magmoms:R:1 pbc="T T T"
Si       1.35340808       1.35392706       1.38405476       0.00000000
Si      -1.36555812      -1.36158336       1.38114457       0.00000000
Si      -1.26755748       1.51301520      -1.35235803       0.00000000
Si       1.41480020      -1.33014366      -1.45085036       0.00000000
Si       2.69829908      -2.70255987       0.02661777       0.00000000
Si       2.71225961       2.70737184       0.02548141       0.00000000
Si      -2.70938538      -2.71176372      -0.02824955       0.00000000
Si      -2.71269225       2.72308527       0.04015358       0.00000000
Si       2.71041884       0.00014661       2.74456476       0.00000000
Si      -0.00280199      -2.71538010       2.74570804       0.00000000
