10
Lattice="16.28999089631971 0.0 0.0 0.0 16.28999089631971 0.0 0.0 0.0 34.64500226677339" Properties=species:S:1:pos:R:3:initial_magmoms:R:1 pbc="T T T"
Si       1.16724366       1.21266720      -1.68017961       0.00000000
Si      -0.70001388       1.62096156       1.75307274       0.00000000
Si      -1.43148375      -1.30776120      -1.56938483       0.00000000
Si       0.47267064      -0.02425581       3.11126152       0.00000000
Si       2.57453676      -0.65875131       1.91306345       0.00000000
Si       2.39969619      -2.54640393      -0.24972132       0.00000000
Si      -1.64480130      -3.21678630       1.08716078       0.00000000
Si       2.81248479       2.48340954      -0.61876009       0.00000000
Si       2.52219699      -0.19013688      -3.04838081       0.00000000
Si      -3.23687187      -2.26417968      -0.39044939       0.00000000
