10
Lattice="16.28999089631971 0.0 0.0 0.0 16.28999089631971 0.0 0.0 0.0 34.64500226677339" Properties=species:S:1:pos:R:3:initial_magmoms:R:1 pbc="T T T"
Si      -1.97196966      -0.88977609      -0.92031035       0.00000000
Si       1.04521527      -1.70140905       1.25120496       0.00000000
Si       1.18278432       0.31392459      -2.03944849       0.00000000
Si      -0.46747413       2.06071758       1.26980933       0.00000000
Si      -0.03020166       2.23415721      -2.75223516       0.00000000
Si      -2.99072997      -1.69850943       1.01915260       0.00000000
Si       1.40887455       3.40635303       0.93181250       0.00000000
Si      -3.47371218       0.87979032      -1.33570416       0.00000000
Si       1.02465729      -1.25890749       3.52766004       0.00000000
Si      -2.13206778       2.86865271      -1.55403709       0.00000000
