10
Lattice="16.28999089631971 0.0 0.0 0.0 16.28999089631971 0.0 0.0 0.0 34.64500226677339" Properties=species:S:1:pos:R:3:initial_magmoms:R:1 pbc="T T T"
Si      -1.31520573       1.92538026       0.42786602       0.00000000
Si       0.99207729       0.27852642      -2.16430915       0.00000000
Si      -1.54561149      -1.70160453      -0.76870374       0.00000000
Si       0.98072316       0.18591777       2.31328274       0.00000000
Si       2.71615753       1.10428281       1.04846229       0.00000000
Si      -1.60419033      -2.82312216       1.24576569       0.00000000
Si      -3.26332683      -0.17739810      -1.37859470       0.00000000
Si      -2.43804285       1.99824543      -1.68721255       0.00000000
Si      -0.40016385       2.12563323      -2.89632381       0.00000000
Si      -2.47078575       1.25343405       2.42556725       0.00000000
