10
Lattice="16.28999089631971 0.0 0.0 0.0 16.28999089631971 0.0 0.0 0.0 34.64500226677339" Properties=species:S:1:pos:R:3:initial_magmoms:R:1 pbc="T T T"
Si      -0.80259105      -2.27235726      -0.04860697       0.00000000
Si      -1.20185895       1.12573674      -1.78505009       0.00000000
Si       2.40884302      -0.48635424      -0.29004812       0.00000000
Si      -0.41097064       1.08857925       2.30219633       0.00000000
Si       1.72389739       0.70174062       3.11995742       0.00000000
Si       2.80061752      -1.13567364       2.04131932       0.00000000
Si      -2.54897679      -2.45382786       1.59183481       0.00000000
Si       0.86313217      -3.78113869       0.90153275       0.00000000
Si      -1.18063308      -3.03134583      -2.30489864       0.00000000
Si      -1.47755091       3.18883266       1.89917080       0.00000000
