10
Lattice="16.28999089631971 0.0 0.0 0.0 16.28999089631971 0.0 0.0 0.0 34.64500226677339" Properties=species:S:1:pos:R:3:initial_magmoms:R:1 pbc="T T T"
Si      -1.35604150      -1.35593073       1.35808485       0.00000000
Si      -1.35662306       1.35641943      -1.35711479       0.00000000
Si       1.35692442      -1.35736425      -1.35739195       0.00000000
Si       1.35936792       1.35773892       1.35739195       0.00000000
Si      -2.71162441       0.00047241      -2.71374454       0.00000000
Si      -0.00014661      -2.71384884      -2.71433351       0.00000000
Si       2.71518462       0.00057015      -2.71395241       0.00000000
Si      -2.71496969       2.71464705       0.00013858       0.00000000
Si       2.71508688       2.71472850       0.00003465       0.00000000
Si       2.71391400       0.00045612       2.71599647       0.00000000
