10
Lattice="16.28999089631971 0.0 0.0 0.0 16.28999089631971 0.0 0.0 0.0 34.64500226677339" Properties=species:S:1:pos:R:3:initial_magmoms:R:1 pbc="T T T"
Si       1.38760501       1.22126130      -1.45308150       0.00000000
Si       1.68958903      -0.54722997       1.60160470       0.00000000
Si      -1.81817644       1.06831449       1.15496109       0.00000000
Si      -1.24489614      -1.46103381      -1.48786510       0.00000000
Si       2.37171649       1.77388326       2.02811957       0.00000000
Si       2.35708807       2.91431358      -0.08418740       0.00000000
Si      -0.02733951       2.43880848      -2.86763773       0.00000000
Si       2.93399842      -2.44263663       0.41251827       0.00000000
Si      -2.40660382      -3.02272353      -0.14613270       0.00000000
Si       2.68917601      -0.25998840      -2.85672455       0.00000000
