10
Lattice="16.28999089631971 0.0 0.0 0.0 16.28999089631971 0.0 0.0 0.0 34.64500226677339" Properties=species:S:1:pos:R:3:initial_magmoms:R:1 pbc="T T T"
Si       0.96943419       1.66672764       1.29090815       0.00000000
Si      -1.96774729      -0.46413468       1.16622072       0.00000000
Si       1.61601687      -1.72441053      -0.27639798       0.00000000
Si      -0.97129125       0.84484827      -2.00878764       0.00000000
Si       1.94059512       0.37615239       2.97663097       0.00000000
Si      -2.90563590      -2.25725643      -0.13012670       0.00000000
Si      -3.35514446       1.42583112       0.61096496       0.00000000
Si      -0.18595035      -0.65239821      -3.70060799       0.00000000
Si       3.21606954      -1.04198985      -1.81526055       0.00000000
Si      -1.47686769      -0.69354675       3.47773656       0.00000000
