10
Lattice="16.28999089631971 0.0 0.0 0.0 16.28999089631971 0.0 0.0 0.0 34.64500226677339" Properties=species:S:1:pos:R:3:initial_magmoms:R:1 pbc="T T T"
Si       1.35739683       1.35596331       1.35746124       0.00000000
Si      -1.35779268      -1.35831070       1.35787698       0.00000000
Si      -1.36068252       1.35514881      -1.35888168       0.00000000
Si       1.35967743      -1.35805657      -1.35777304       0.00000000
Si      -2.71467223       0.01827738      -2.70469873       0.00000000
Si      -2.71437068      -2.71298764      -0.00017323       0.00000000
Si      -2.71415259       2.71495656       0.00090077       0.00000000
Si      -0.00071676       2.71388142       2.71526893       0.00000000
Si       2.71446786      -0.00114030       2.71492247       0.00000000
Si       2.71538010       2.71453302       0.00003465       0.00000000
