10
Lattice="16.28999089631971 0.0 0.0 0.0 16.28999089631971 0.0 0.0 0.0 34.64500226677339" Properties=species:S:1:pos:R:3:initial_magmoms:R:1 pbc="T T T"
Si       1.41494451      -1.21754718       1.41455623       0.00000000
Si       1.35292848       1.35410625      -1.36293515       0.00000000
Si      -1.35944685      -1.35865116      -1.36619178       0.00000000
Si      -1.17337033       1.45171593       1.48034713       0.00000000
Si       2.38442757       0.47550510       2.78345033       0.00000000
Si       0.02733951      -2.43880848       2.86763773       0.00000000
Si       0.77596926       2.39428791       2.87480925       0.00000000
Si      -2.69814106       2.71114470       0.01479342       0.00000000
Si       2.71651551      -2.69879688       0.01091318       0.00000000
Si      -2.71565281      -2.71274112      -0.00006929       0.00000000
