10
Lattice="10.86 0.0 0.0 0.0 10.86 0.0 0.0 0.0 10.86" Properties=species:S:1:pos:R:3:initial_magmoms:R:1 pbc="T T T"
Si      -1.34611872      -1.41661098       1.27608258       0.00000000
Si      -1.34611872       1.29838902      -1.43891742       0.00000000
Si       1.61000586       0.58749342       1.64664750       0.00000000
Si       1.36888128      -1.41661098      -1.43891742       0.00000000
Si       2.68590606       2.37953460       0.01066452       0.00000000
Si       0.18377292       2.61774870       2.59613730       0.00000000
Si      -2.70361872      -0.05911098       2.63358258       0.00000000
Si      -2.70361872       2.65588902      -0.08141742       0.00000000
Si       0.01138128       2.65588902      -2.79641742       0.00000000
Si      -2.70361872      -2.77411098      -0.08141742       0.00000000
