10
Lattice="10.86 0.0 0.0 0.0 10.86 0.0 0.0 0.0 10.86" Properties=species:S:1:pos:R:3:initial_magmoms:R:1 pbc="T T T"
Si       0.74035878      -1.12340184      -1.95316014       0.00000000
Si      -2.03265534       0.83227782       1.05508158       0.00000000
Si       0.96294534      -1.94464590       1.15336458       0.00000000
Si      -0.21939372       2.16002142      -2.39395668       0.00000000
Si      -0.41564478       2.09851038       2.46612138       0.00000000
Si       2.29935522      -0.61648962       2.46612138       0.00000000
Si       0.84460392       3.34444560       0.95119482       0.00000000
Si      -3.13064478       2.09851038      -0.24887862       0.00000000
Si       0.94185522       0.74101038       3.82362138       0.00000000
Si      -3.13064478      -0.61648962       2.46612138       0.00000000
