10
Lattice="10.86 0.0 0.0 0.0 10.86 0.0 0.0 0.0 10.86" Properties=species:S:1:pos:R:3:initial_magmoms:R:1 pbc="T T T"
Si      -1.58044494       1.23253398       0.97654206       0.00000000
Si       1.04317902       1.31937054      -1.75811454       0.00000000
Si      -1.29279612      -1.36510200      -1.68966396       0.00000000
Si       0.21939372      -2.16002142       2.39395668       0.00000000
Si      -0.19625106       2.65348896       2.14507806       0.00000000
Si       0.95975250      -3.28342326       0.44079654       0.00000000
Si      -2.91125106      -0.06151104       2.14507806       0.00000000
Si       2.51874894       2.65348896      -0.56992194       0.00000000
Si       1.06399764       1.18442418       3.34515150       0.00000000
Si      -2.91125106       2.65348896      -0.56992194       0.00000000
