10
Lattice="10.86 0.0 0.0 0.0 10.86 0.0 0.0 0.0 10.86" Properties=species:S:1:pos:R:3:initial_magmoms:R:1 pbc="T T T"
Si      -1.40355726       1.28414070      -1.13088438       0.00000000
Si       1.31144274      -1.43085930      -1.13088438       0.00000000
Si      -1.40355726      -1.43085930       1.58411562       0.00000000
Si       1.61205840       0.68646060       2.00208444       0.00000000
Si      -0.04605726       2.64164070      -2.48838438       0.00000000
Si       2.66894274      -0.07335930      -2.48838438       0.00000000
Si      -2.76105726      -0.07335930      -2.48838438       0.00000000
Si      -0.04605726      -2.78835930      -2.48838438       0.00000000
Si       2.43302010      -2.85590850       0.28679088       0.00000000
Si       0.19178760       2.52554730       2.85317178       0.00000000
