10
Lattice="10.86 0.0 0.0 0.0 10.86 0.0 0.0 0.0 10.86" Properties=species:S:1:pos:R:3:initial_magmoms:R:1 pbc="T T T"
Si       1.11965514       1.47359340       1.44594384       0.00000000
Si       1.42027080      -1.83908670      -0.85108734       0.00000000
Si      -1.59534486      -1.24140660       1.44594384       0.00000000
Si      -1.59534486       1.47359340      -1.26905616       0.00000000
Si       2.33555160       0.01012152       2.74914384       0.00000000
Si       2.50751970       0.28394556      -2.64886260       0.00000000
Si       2.47715514       2.83109340       0.08844384       0.00000000
Si      -0.20067108      -2.47082376       2.84735082       0.00000000
Si      -0.19178760      -2.52554730      -2.85317178       0.00000000
Si      -0.23784486       2.83109340      -2.62655616       0.00000000
