10
Lattice="10.86 0.0 0.0 0.0 10.86 0.0 0.0 0.0 10.86" Properties=species:S:1:pos:R:3:initial_magmoms:R:1 pbc="T T T"
Si       1.47188838      -1.41707796      -1.23135024       0.00000000
Si      -1.24311162      -1.41707796       1.48364976       0.00000000
Si       1.47188838       1.29792204       1.48364976       0.00000000
Si      -0.12383658       2.82027684      -2.43679938       0.00000000
Si      -2.74221516       2.54945016       0.07184976       0.00000000
Si      -2.71989786      -2.65746372       0.06965604       0.00000000
Si      -0.05374614      -2.75845086      -2.63829582       0.00000000
Si       2.82938838      -0.05957796      -2.58885024       0.00000000
Si      -2.60061162      -0.05957796       2.84114976       0.00000000
Si       2.82938838       2.65542204       0.12614976       0.00000000
