10
Lattice="10.86 0.0 0.0 0.0 10.86 0.0 0.0 0.0 10.86" Properties=species:S:1:pos:R:3:initial_magmoms:R:1 pbc="T T T"
Si       1.32004386       1.01302080       1.61122218       0.00000000
Si       1.25021406      -1.43466030      -1.33761534       0.00000000
Si      -1.46478594       1.28033970      -1.33761534       0.00000000
Si      -1.46478594      -1.43466030       1.37738466       0.00000000
Si       2.22610452       2.53748244       0.05166102       0.00000000
Si       2.60771406      -0.07716030      -2.69511534       0.00000000
Si      -0.10728594       2.63783970      -2.69511534       0.00000000
Si      -2.82228594       2.63783970       0.01988466       0.00000000
Si      -0.10728594      -2.79216030      -2.69511534       0.00000000
Si      -2.82228594      -0.07716030      -2.69511534       0.00000000
