10
Lattice="10.86 0.0 0.0 0.0 10.86 0.0 0.0 0.0 10.86" Properties=species:S:1:pos:R:3:initial_magmoms:R:1 pbc="T T T"
Si       1.13732436      -1.12420548      -1.51977012       0.00000000
Si      -1.57767564      -1.12420548       1.19522988       0.00000000
Si       1.13732436       1.59079452       1.19522988       0.00000000
Si       2.49482436      -2.48170548      -0.16227012       0.00000000
Si      -0.22017564      -2.48170548       2.55272988       0.00000000
Si       2.49482436       0.23329452       2.55272988       0.00000000
Si      -0.14971596      -2.31361440      -2.78323338       0.00000000
Si       2.49482436       0.23329452      -2.87727012       0.00000000
Si      -0.37725468       2.74951308      -2.67349308       0.00000000
Si       2.49482436       2.94829452      -0.16227012       0.00000000
