10
Lattice="10.86 0.0 0.0 0.0 10.86 0.0 0.0 0.0 10.86" Properties=species:S:1:pos:R:3:initial_magmoms:R:1 pbc="T T T"
Si      -1.28472714       1.28472714       1.47143226       0.00000000
Si       1.37991504       1.33508496      -1.34738934       0.00000000
Si      -1.33508496      -1.37991504      -1.34738934       0.00000000
Si       1.37991504      -1.37991504       1.36761066       0.00000000
Si      -2.66479422       2.66479422       0.00687438       0.00000000
Si       0.02241504       2.69258496      -2.70488934       0.00000000
Si      -2.69258496      -0.02241504      -2.70488934       0.00000000
Si       2.73741504       2.69258496       0.01011066       0.00000000
Si      -2.69258496      -2.73741504       0.01011066       0.00000000
Si       2.73741504      -0.02241504      -2.70488934       0.00000000
