10
Lattice="10.86 0.0 0.0 0.0 10.86 0.0 0.0 0.0 10.86" Properties=species:S:1:pos:R:3:initial_magmoms:R:1 pbc="T T T"
Si      -1.28618238       1.28618238       1.41392856       0.00000000
Si       1.29756366      -1.29756366       1.39969110       0.00000000
Si       1.42881762       1.28618238      -1.30107144       0.00000000
Si      -1.28618238      -1.42881762      -1.30107144       0.00000000
Si      -2.64368238       2.64368238       0.05642856       0.00000000
Si       0.07131762       2.64368238      -2.65857144       0.00000000
Si      -2.64368238      -0.07131762      -2.65857144       0.00000000
Si       0.07131762       2.64368238       2.77142856       0.00000000
Si      -2.64368238      -0.07131762       2.77142856       0.00000000
Si       2.78631762       2.64368238       0.05642856       0.00000000
