10
Lattice="16.28999089631971 0.0 0.0 0.0 16.28999089631971 0.0 0.0 0.0 34.28971787722196" Properties=species:S:1:pos:R:3:initial_magmoms:R:1 pbc="T T T"
Si      -1.56593882      -1.24318552      -1.24773461       0.00000000
Si       1.35941027      -1.35771678       1.37884862       0.00000000
Si       1.74898562       1.03235920      -1.24025156       0.00000000
Si      -1.36550666       1.38896359       1.36999844       0.00000000
Si       0.39448841      -1.89784431      -2.29624451       0.00000000
Si       2.68324970       2.72888125       0.03901486       0.00000000
Si      -0.00726860      -2.69905167       2.75344874       0.00000000
Si       2.70620231       0.01720061       2.75197428       0.00000000
Si       2.83937306      -2.61732474      -0.11911569       0.00000000
Si      -2.72103014       0.01423746       2.74724230       0.00000000
