10
Lattice="16.28999089631971 0.0 0.0 0.0 16.28999089631971 0.0 0.0 0.0 34.28971787722196" Properties=species:S:1:pos:R:3:initial_magmoms:R:1 pbc="T T T"
Si      -1.09964246      -0.44170335      -2.00660112       0.00000000
Si      -1.78963799      -0.88184286       1.31487426       0.00000000
Si       1.55346816      -1.84689504      -0.13541017       0.00000000
Si       0.56149838       2.37415267      -0.22984411       0.00000000
Si       0.83492114      -0.29204712      -3.33172801       0.00000000
Si       1.39589499       1.11643515       2.98821342       0.00000000
Si      -0.08861597      -3.57251103      -0.25065798       0.00000000
Si       1.28100162      -1.19591406       3.21150819       0.00000000
Si      -2.79443777       1.22948775      -2.03756475       0.00000000
Si      -0.67504361      -2.40231888       2.73145187       0.00000000
