10
Lattice="16.28999089631971 0.0 0.0 0.0 16.28999089631971 0.0 0.0 0.0 34.28971787722196" Properties=species:S:1:pos:R:3:initial_magmoms:R:1 pbc="T T T"
Si      -1.78298937      -0.76842048      -1.40206418       0.00000000
Si      -1.35575154       1.33231023       1.45787275       0.00000000
Si       1.34583093      -1.36773188       1.45005126       0.00000000
Si       0.83007324       2.02515651      -1.14444672       0.00000000
Si      -1.26179082       0.53921529      -3.43431403       0.00000000
Si      -2.58344739      -2.65561928      -0.05498702       0.00000000
Si       2.63052549      -2.73829103       0.03956350       0.00000000
Si      -2.73957075       2.69058672       0.10314353       0.00000000
Si       2.82165606       2.67514380       0.01412394       0.00000000
Si       0.00060273       2.69008173       2.81569147       0.00000000
