10
Lattice="16.28999089631971 0.0 0.0 0.0 16.28999089631971 0.0 0.0 0.0 34.28971787722196" Properties=species:S:1:pos:R:3:initial_magmoms:R:1 pbc="T T T"
Si      -0.75150657      -1.98375222       1.15463832       0.00000000
Si      -1.43886312       1.26074826      -1.49866725       0.00000000
Si       1.29593466      -1.41863583      -1.50518230       0.00000000
Si       0.79234560       1.82397501       1.44071759       0.00000000
Si       2.64458376       2.74370841       0.02664313       0.00000000
Si      -1.06077222       3.49423758       1.15810158       0.00000000
Si       2.70275535      -2.79432349      -0.18986227       0.00000000
Si      -0.07444530       2.63067210      -2.87721755       0.00000000
Si      -2.97952245       2.52047025       0.07773483       0.00000000
Si       2.63972934      -0.08231337      -2.88328683       0.00000000
