10
Lattice="16.28999089631971 0.0 0.0 0.0 16.28999089631971 0.0 0.0 0.0 34.28971787722196" Properties=species:S:1:pos:R:3:initial_magmoms:R:1 pbc="T T T"
Si      -0.40646808      -0.12629637       2.28242777       0.00000000
Si       2.09699541      -0.82061364      -0.57860502       0.00000000
Si       0.32070123       2.30664771      -0.30373849       0.00000000
Si      -1.48063068      -1.70720177      -0.70269958       0.00000000
Si      -2.38301523       1.15486326       1.85922383       0.00000000
Si       1.98882981       2.49665427       1.35530186       0.00000000
Si       1.63401732       0.81329454       3.08665926       0.00000000
Si       1.70523720      -1.91529675      -2.59048676       0.00000000
Si      -1.51765785      -3.41877320       0.91210701       0.00000000
Si       3.00736206      -2.27052368       1.02159414       0.00000000
