10
Lattice="16.28999089631971 0.0 0.0 0.0 16.28999089631971 0.0 0.0 0.0 34.28971787722196" Properties=species:S:1:pos:R:3:initial_magmoms:R:1 pbc="T T T"
Si       1.61880246      -1.69056968      -0.11133878       0.00000000
Si      -2.04048540      -0.93959091      -0.80423149       0.00000000
Si       0.09008370       0.67842963       2.34109751       0.00000000
Si       0.35481249       1.68335973      -1.73135740       0.00000000
Si      -2.27437722       1.23517296       2.24659499       0.00000000
Si      -1.63401732      -0.81329454      -3.08665926       0.00000000
Si       3.66342552      -0.59085459       0.29818355       0.00000000
Si       1.22292288      -3.12076394       1.77888298       0.00000000
Si       2.53939923       1.39558059      -2.64960227       0.00000000
Si      -1.31331609       1.49335317      -3.39039775       0.00000000
