10
Lattice="16.28999089631971 0.0 0.0 0.0 16.28999089631971 0.0 0.0 0.0 34.28971787722196" Properties=species:S:1:pos:R:3:initial_magmoms:R:1 pbc="T T T"
Si      -1.34674317      -1.34472321      -1.38043623       0.00000000
Si       1.36441782       1.36992384      -1.37855030       0.00000000
Si       1.43886312      -1.26074826       1.49866725       0.00000000
Si      -1.54065933       1.25972199       1.57640208       0.00000000
Si       0.37809090       2.23348932       2.65676883       0.00000000
Si       2.23120872       0.56322675       2.93938484       0.00000000
Si       2.73479778      -2.67938409      -0.00651505       0.00000000
Si      -2.69964885      -2.72056195       0.00593212       0.00000000
Si      -2.72098549       2.72469798       0.00572639       0.00000000
Si       0.00667890      -2.70598566      -2.74084726       0.00000000
