10
Lattice="16.28999089631971 0.0 0.0 0.0 16.28999089631971 0.0 0.0 0.0 34.28971787722196" Properties=species:S:1:pos:R:3:initial_magmoms:R:1 pbc="T T T"
Si      -0.35741889      -2.12773464      -0.90881519       0.00000000
Si      -1.88182080       1.19997027       0.80694038       0.00000000
Si       1.77960105      -0.54123525       1.47984218       0.00000000
Si       0.97228494       1.26824166      -1.76310970       0.00000000
Si       1.82716785      -2.41551378      -1.82706006       0.00000000
Si       3.16806291       1.66353480      -0.83012024       0.00000000
Si      -1.42087896       3.40781913      -0.04389086       0.00000000
Si       3.00817656      -2.24687970       0.21389938       0.00000000
Si      -3.82150368       0.26179659      -0.10653821       0.00000000
Si       3.40047234       1.17964035       1.48244820       0.00000000
