10
Lattice="16.28999089631971 0.0 0.0 0.0 16.28999089631971 0.0 0.0 0.0 34.28971787722196" Properties=species:S:1:pos:R:3:initial_magmoms:R:1 pbc="T T T"
Si      -0.68572755       1.33493292       1.80151420       0.00000000
Si       0.67373811       0.98676675      -2.05169213       0.00000000
Si      -1.72801062      -1.60466274      -0.36789459       0.00000000
Si       2.06394300      -0.94483629       0.77241062       0.00000000
Si      -1.23261543      -2.98499589       1.67608235       0.00000000
Si       2.22708735      -3.09109266      -0.11312184       0.00000000
Si      -1.72963962       3.30499665       0.96974805       0.00000000
Si       1.06029981       2.39956587       2.87155974       0.00000000
Si       1.90231362      -0.71887770      -3.31763493       0.00000000
Si      -1.13204097      -0.00083079       3.77571152       0.00000000
