10
Lattice="16.28999089631971 0.0 0.0 0.0 16.28999089631971 0.0 0.0 0.0 34.28971787722196" Properties=species:S:1:pos:R:3:initial_magmoms:R:1 pbc="T T T"
Si      -2.13547239      -0.79143336       0.54819003       0.00000000
Si       0.94063347       0.76354488       2.05237792       0.00000000
Si       1.19081529      -2.08930653      -0.19322267       0.00000000
Si       0.44631342       1.33576371      -1.97419732       0.00000000
Si       2.19234078       2.40039666      -0.90415179       0.00000000
Si       2.94632343       1.38041460       1.04326525       0.00000000
Si      -3.41778861       0.89150283      -0.47858186       0.00000000
Si      -2.03828625      -2.86589970      -0.61858686       0.00000000
Si      -0.10057446      -2.98416510      -2.09962918       0.00000000
Si      -2.02457007      -0.97251300       2.97065708       0.00000000
