10
Lattice="16.28999089631971 0.0 0.0 0.0 16.28999089631971 0.0 0.0 0.0 34.28971787722196" Properties=species:S:1:pos:R:3:initial_magmoms:R:1 pbc="T T T"
Si       1.34032491       1.10734533       1.60393674       0.00000000
Si      -1.13842665       1.42237764      -1.51128587       0.00000000
Si      -1.36361961      -1.39336515       1.48395695       0.00000000
Si       1.58656455      -1.28532987      -1.50919420       0.00000000
Si       0.54618741      -2.32474590       2.61942730       0.00000000
Si      -2.53324161      -2.69804754      -0.09398817       0.00000000
Si      -2.67731037       2.66773185      -0.04584538       0.00000000
Si      -2.47498857       0.06094089      -2.89038480       0.00000000
Si       2.84846940       2.59159239       0.01086985       0.00000000
Si      -0.20049732       2.32635861       3.16093083       0.00000000
