10
Lattice="16.28999089631971 0.0 0.0 0.0 16.28999089631971 0.0 0.0 0.0 34.28971787722196" Properties=species:S:1:pos:R:3:initial_magmoms:R:1 pbc="T T T"
Si       1.32999705       0.55109070       1.85212586       0.00000000
Si      -0.40428522       1.52814861      -1.79133015       0.00000000
Si       1.55662353      -1.13125905      -1.45175889       0.00000000
Si      -1.76482602      -1.50632001       0.71566110       0.00000000
Si       1.13653701       0.30913533      -3.34832424       0.00000000
Si      -1.93108176       2.98406736      -0.20392107       0.00000000
Si       2.55301767       2.32673328       1.02615467       0.00000000
Si      -0.32017995      -3.46066389       1.33102472       0.00000000
Si       3.05411436      -1.11290022       1.91727636       0.00000000
Si      -0.02836089       1.35871632       3.65319429       0.00000000
