10
Lattice="16.28999089631971 0.0 0.0 0.0 16.28999089631971 0.0 0.0 0.0 34.28971787722196" Properties=species:S:1:pos:R:3:initial_magmoms:R:1 pbc="T T T"
Si      -1.80620262      -0.68502708      -1.34710661       0.00000000
Si      -0.55658043       1.02894156       2.05978450       0.00000000
Si       1.04391207      -1.97006373       0.83176615       0.00000000
Si       1.54403136       1.54036611      -1.06637653       0.00000000
Si       1.57708377       0.77831991       3.00940448       0.00000000
Si       2.78993943      -0.90543078       1.90181169       0.00000000
Si      -3.25700631       1.03360050      -0.79490468       0.00000000
Si      -2.27833569      -0.21374109       2.92776062       0.00000000
Si       1.77846075       3.35391552       0.43263361       0.00000000
Si      -2.91177234      -2.48344308      -0.09601126       0.00000000
