10
Lattice="16.28999089631971 0.0 0.0 0.0 16.28999089631971 0.0 0.0 0.0 34.28971787722196" Properties=species:S:1:pos:R:3:initial_magmoms:R:1 pbc="T T T"
Si       1.35754344       1.34951247       1.37204896       0.00000000
Si      -1.36104579      -1.36409202       1.37246044       0.00000000
Si       1.32082578      -1.41631776      -1.37493273       0.00000000
Si      -1.22603427       1.43249373      -1.49729223       0.00000000
Si      -2.70599706       2.69210169       0.00067208       0.00000000
Si       2.70414000      -2.71500543       0.02805586       0.00000000
Si       2.70324405       2.72038113       0.00774605       0.00000000
Si      -2.71355562      -2.71453302      -0.01319469       0.00000000
Si      -0.00180819       2.70832170       2.73194565       0.00000000
Si       2.71629234      -0.00754227       2.73170562       0.00000000
