10
Lattice="16.28999089631971 0.0 0.0 0.0 16.28999089631971 0.0 0.0 0.0 34.28971787722196" Properties=species:S:1:pos:R:3:initial_magmoms:R:1 pbc="T T T"
Si       0.12124647      -0.49528116       2.28451944       0.00000000
Si      -2.23058156      -0.48866742      -0.69975066       0.00000000
Si       0.93664242      -2.19389552      -0.18029544       0.00000000
Si       1.13267628       2.12314086      -0.32839281       0.00000000
Si       0.59155506      -2.19699062      -2.69507046       0.00000000
Si      -0.94726350      -3.34533788       0.78403484       0.00000000
Si       1.36656810      -0.05162301      -3.37921930       0.00000000
Si      -1.78166011      -2.08762035      -2.43402269       0.00000000
Si      -0.19818414       2.94143643      -2.24676644       0.00000000
Si      -2.98404197      -2.02730989       0.89184177       0.00000000
