10
Lattice="16.28999089631971 0.0 0.0 0.0 16.28999089631971 0.0 0.0 0.0 34.28971787722196" Properties=species:S:1:pos:R:3:initial_magmoms:R:1 pbc="T T T"
Si      -1.35769005      -1.35666378      -1.35639913       0.00000000
Si       1.35796698       1.35854768      -1.35629626       0.00000000
Si       1.35962856      -1.35418770       1.35955378       0.00000000
Si      -1.35796698       1.35603496       1.36305134       0.00000000
Si       0.00060273      -2.71456560      -2.71406698       0.00000000
Si       2.71531494       0.00104256      -2.71344976       0.00000000
Si       2.71386513       2.71551272      -0.00010287       0.00000000
Si      -2.71520091       0.00087966      -2.71430700       0.00000000
Si       0.00027693       2.71559254      -2.71396411       0.00000000
Si       2.71555929      -2.71513575      -0.00030861       0.00000000
