10
Lattice="16.28999089631971 0.0 0.0 0.0 16.28999089631971 0.0 0.0 0.0 34.28971787722196" Properties=species:S:1:pos:R:3:initial_magmoms:R:1 pbc="T T T"
Si       1.14238512       1.83453093       0.89012728       0.00000000
Si      -1.15877286       1.45148787      -1.48453988       0.00000000
Si       1.53888372      -1.24535421      -1.46544049       0.00000000
Si      -1.83961341      -1.02856689       1.41702338       0.00000000
Si      -2.51172252       2.68104078      -0.01313297       0.00000000
Si       2.67731037      -2.66773185       0.04584538       0.00000000
Si      -2.51098947       0.10614564      -2.84896280       0.00000000
Si      -2.66300775      -2.76459219      -0.02462003       0.00000000
Si      -0.47739474       3.63793397       1.18748788       0.00000000
Si       0.20232180      -2.60679096      -2.84453943       0.00000000
