10
Lattice="16.28999089631971 0.0 0.0 0.0 16.28999089631971 0.0 0.0 0.0 34.28971787722196" Properties=species:S:1:pos:R:3:initial_magmoms:R:1 pbc="T T T"
Si       0.40428522      -1.52814861       1.79133015       0.00000000
Si       0.53178705       2.34525501      -0.07862637       0.00000000
Si       1.54082223      -1.21901328      -1.55699409       0.00000000
Si      -1.52679654       1.45591875       1.58740909       0.00000000
Si       1.96090875      -2.65940766       0.33957127       0.00000000
Si      -1.33442793       2.17590417      -2.31664892       0.00000000
Si       1.47536901       2.47915881       2.11708265       0.00000000
Si      -1.52919117       3.49325108       0.03086076       0.00000000
Si       0.20049732      -2.32635861      -3.16093083       0.00000000
Si      -2.47681305       0.34137324      -3.20677621       0.00000000
