10
Lattice="16.28999089631971 0.0 0.0 0.0 16.28999089631971 0.0 0.0 0.0 34.28971787722196" Properties=species:S:1:pos:R:3:initial_magmoms:R:1 pbc="T T T"
Si       1.87403418      -0.06112008      -1.41122842       0.00000000
Si      -1.84044420       0.49207203      -1.39778684       0.00000000
Si      -0.07017732       2.23461400       0.82247363       0.00000000
Si       0.34829649      -2.11328541       1.09843744       0.00000000
Si       0.33840846      -3.31618788      -0.94715112       0.00000000
Si       1.60643835      -2.10712779      -2.52444473       0.00000000
Si      -1.46696337       2.81262230      -2.04740591       0.00000000
Si       0.46661076       3.61223324      -1.04079639       0.00000000
Si       1.49235948       1.39067145      -3.27034938       0.00000000
Si       3.87167688      -0.33322824      -0.08517571       0.00000000
