10
Lattice="16.28999089631971 0.0 0.0 0.0 16.28999089631971 0.0 0.0 0.0 34.28971787722196" Properties=species:S:1:pos:R:3:initial_magmoms:R:1 pbc="T T T"
Si       2.07932076      -1.04498721      -0.27109466       0.00000000
Si       0.26759583       2.04600771       1.11321631       0.00000000
Si      -1.26802989      -1.20906009       1.57729361       0.00000000
Si      -0.64171197      -0.11883555      -2.29953835       0.00000000
Si      -0.11407887       3.49779924      -0.74590465       0.00000000
Si      -0.25572042      -3.36996117       1.35605623       0.00000000
Si      -1.60643835       2.10712779       2.52444473       0.00000000
Si      -2.70629028      -1.16686899      -2.23490219       0.00000000
Si       2.26523853       1.77389955       2.43926902       0.00000000
Si       1.84489137      -2.85853662      -1.77010481       0.00000000
