10
Lattice="16.28999089631971 0.0 0.0 0.0 16.28999089631971 0.0 0.0 0.0 34.28971787722196" Properties=species:S:1:pos:R:3:initial_magmoms:R:1 pbc="T T T"
Si       1.35589815       1.35696504       1.35619339       0.00000000
Si       1.35734796      -1.35750512      -1.35715350       0.00000000
Si      -1.35769005       1.35704487      -1.35766785       0.00000000
Si      -1.35796698      -1.35854768       1.35629626       0.00000000
Si       0.00166158      -2.71273538       2.71585004       0.00000000
Si       2.71464705       2.71465998      -0.00010287       0.00000000
Si       2.71454931      -2.71495082      -0.00037719       0.00000000
Si       2.71508688      -0.00168031      -2.71447845       0.00000000
Si      -0.00158013       2.71479030      -2.71540428       0.00000000
Si      -2.71518462       2.71501836      -0.00044577       0.00000000
