10
Lattice="16.28999089631971 0.0 0.0 0.0 16.28999089631971 0.0 0.0 0.0 34.28971787722196" Properties=species:S:1:pos:R:3:initial_magmoms:R:1 pbc="T T T"
Si      -1.35659862      -1.35681039      -1.35567904       0.00000000
Si      -1.35588186       1.35571896       1.36003384       0.00000000
Si       1.35899325       1.35801585      -1.35581620       0.00000000
Si       1.35944937      -1.35467640       1.36106253       0.00000000
Si      -2.71386513       0.00091224      -2.71279826       0.00000000
Si       0.00167787      -2.71454931      -2.71314115       0.00000000
Si      -2.71318095       2.71497285       0.00250315       0.00000000
Si       0.00109143       2.71647153      -2.71276397       0.00000000
Si       2.71655298       0.00092853      -2.71279826       0.00000000
Si       2.71570590      -2.71407690       0.00078866       0.00000000
