10
Lattice="16.28999089631971 0.0 0.0 0.0 16.28999089631971 0.0 0.0 0.0 34.28971787722196" Properties=species:S:1:pos:R:3:initial_magmoms:R:1 pbc="T T T"
Si      -1.34280099      -1.34899119      -1.39675815       0.00000000
Si       1.37518551       1.36396170      -1.39319202       0.00000000
Si       1.15116543      -1.55230668       1.49530685       0.00000000
Si      -1.33794657       1.47703059       1.51317181       0.00000000
Si       2.46622455      -0.00133578       2.84224201       0.00000000
Si      -2.68659567      -2.68531365      -0.01865362       0.00000000
Si      -2.69324199       2.72668536      -0.01597902       0.00000000
Si       2.72810259       2.71360449      -0.03620996       0.00000000
Si       2.72526813      -2.71755807       0.00363471       0.00000000
Si      -2.69773803       0.00198738      -2.75315728       0.00000000
