10
Lattice="16.28999089631971 0.0 0.0 0.0 16.28999089631971 0.0 0.0 0.0 34.28971787722196" Properties=species:S:1:pos:R:3:initial_magmoms:R:1 pbc="T T T"
Si       1.35291708       1.34964279       1.35698205       0.00000000
Si      -1.35944937       1.35467640      -1.36106253       0.00000000
Si       1.35625653      -1.35940050      -1.36027387       0.00000000
Si      -1.37518551      -1.36396170       1.39319202       0.00000000
Si      -2.71533123       2.71039536      -0.00102869       0.00000000
Si       2.71643895       2.70966231       0.00120014       0.00000000
Si      -0.00045612       2.71269225      -2.71687873       0.00000000
Si       2.71593396      -2.71479366       0.00339468       0.00000000
Si      -2.71798650      -2.71295289      -0.00356613       0.00000000
Si       2.71445157      -0.00172674      -2.71653584       0.00000000
