10
Lattice="16.28999089631971 0.0 0.0 0.0 16.28999089631971 0.0 0.0 0.0 34.28971787722196" Properties=species:S:1:pos:R:3:initial_magmoms:R:1 pbc="T T T"
Si      -0.16856892      -1.32579423      -1.91130994       0.00000000
Si      -1.96644735       1.29310020      -0.14713726       0.00000000
Si       1.68520050       1.65032361      -0.12399169       0.00000000
Si      -0.18560826      -1.21477788       2.03492444       0.00000000
Si       1.77495840       1.79323578       2.33207931       0.00000000
Si      -2.35874313      -2.13341985      -1.41568608       0.00000000
Si      -0.67222314       0.31513005      -3.48476311       0.00000000
Si      -3.58731864      -0.42777540      -0.14974328       0.00000000
Si       0.26508717       0.47506527       3.61811589       0.00000000
Si       3.49951554       0.39781809      -1.17377199       0.00000000
