10
Lattice="16.28999089631971 0.0 0.0 0.0 16.28999089631971 0.0 0.0 0.0 34.28971787722196" Properties=species:S:1:pos:R:3:initial_magmoms:R:1 pbc="T T T"
Si       1.35755973      -1.35708732      -1.35698205       0.00000000
Si      -1.35899325      -1.35801585       1.35581620       0.00000000
Si       1.35625653       1.35741312       1.35927947       0.00000000
Si      -1.35790182       1.35845568      -1.35694776       0.00000000
Si      -0.00052128      -2.71306692      -2.71550715       0.00000000
Si      -0.00138465       2.71466334      -2.71413556       0.00000000
Si      -2.71453302       0.00060273      -2.71478706       0.00000000
Si       2.71490769      -2.71441899       0.00034290       0.00000000
Si       0.00045612      -2.71269225       2.71687873       0.00000000
Si       2.71479366      -0.00027693      -2.71482135       0.00000000
