10
Lattice="16.28999089631971 0.0 0.0 0.0 16.28999089631971 0.0 0.0 0.0 34.28971787722196" Properties=species:S:1:pos:R:3:initial_magmoms:R:1 pbc="T T T"
Si      -1.28469456       1.37055915       1.41048776       0.00000000
Si       1.45288881      -1.35057132       1.39285255       0.00000000
Si      -1.01147868      -1.76593374      -1.31736167       0.00000000
Si       1.62883710       1.20045897      -1.51600212       0.00000000
Si       0.83601909      -3.42392994      -1.18434077       0.00000000
Si      -2.63052549       2.73829103      -0.03956350       0.00000000
Si      -2.63039517      -0.00030951       2.77479067       0.00000000
Si      -2.66711283      -2.76613974       0.02780898       0.00000000
Si       0.08772165      -2.71674846       2.77688235       0.00000000
Si       0.08558766       2.71791549       2.77736240       0.00000000
