10
Lattice="16.28999089631971 0.0 0.0 0.0 16.28999089631971 0.0 0.0 0.0 34.28971787722196" Properties=species:S:1:pos:R:3:initial_magmoms:R:1 pbc="T T T"
Si       1.28469456      -1.37055915      -1.41048776       0.00000000
Si      -1.34570061      -1.37086866       1.36430291       0.00000000
Si       1.37028222       1.34735634       1.36687464       0.00000000
Si      -1.34583093       1.36773188      -1.45005126       0.00000000
Si      -2.70158247       2.70004211       0.00782149       0.00000000
Si       2.72733696       2.68112942       0.00016459       0.00000000
Si      -2.70324405      -2.72038113      -0.00774605       0.00000000
Si       0.01042560       2.70279512       2.72419959       0.00000000
Si      -2.70505224      -0.01205943       2.72419959       0.00000000
Si       0.01304829      -2.72792340       2.72395957       0.00000000
