10
Lattice="16.28999089631971 0.0 0.0 0.0 16.28999089631971 0.0 0.0 0.0 34.28971787722196" Properties=species:S:1:pos:R:3:initial_magmoms:R:1 pbc="T T T"
Si       1.33586145      -1.36557441       1.32231513       0.00000000
Si      -1.34211681      -1.35912357      -1.36384000       0.00000000
Si       1.37950236       1.35454608      -1.35897086       0.00000000
Si      -1.44285417       1.17069714       1.54032928       0.00000000
Si       2.39397840       0.23353344       2.63163445       0.00000000
Si      -2.68729614       2.68174125       0.00246886       0.00000000
Si      -2.70475902      -2.70622512       0.02026523       0.00000000
Si      -2.69470809      -0.00610875      -2.72349665       0.00000000
Si       2.72919402      -2.69884575      -0.01656194       0.00000000
Si       0.01842399       2.70899442      -2.72298231       0.00000000
