10
Lattice="16.28999089631971 0.0 0.0 0.0 16.28999089631971 0.0 0.0 0.0 34.28971787722196" Properties=species:S:1:pos:R:3:initial_magmoms:R:1 pbc="T T T"
Si       0.69266709      -1.04894568       1.94817141       0.00000000
Si      -1.56457305       1.70054568       0.46236281       0.00000000
Si       1.97446203       1.00910034      -0.81534137       0.00000000
Si      -0.81116055      -1.56996504      -1.58000250       0.00000000
Si      -2.46720195      -0.07936488      -2.36499745       0.00000000
Si      -0.27153801       2.55817738       2.40494500       0.00000000
Si      -1.16869347       3.13073993      -1.42785894       0.00000000
Si      -3.63400578       0.50932314      -0.35081830       0.00000000
Si       2.37620601      -2.60820819       1.17953266       0.00000000
Si       0.74562588       0.69383997       3.65970934       0.00000000
