10
Lattice="16.28999089631971 0.0 0.0 0.0 16.28999089631971 0.0 0.0 0.0 34.28971787722196" Properties=species:S:1:pos:R:3:initial_magmoms:R:1 pbc="T T T"
Si      -1.12417290       1.50337152       1.38177353       0.00000000
Si       1.85921028       1.19532762      -0.78616080       0.00000000
Si      -1.32841692      -0.10767690      -2.00992723       0.00000000
Si       0.80884737      -1.69883523       1.52963088       0.00000000
Si      -2.55143754      -1.88331948      -1.18395604       0.00000000
Si       1.40149386       3.08425642       0.54949304       0.00000000
Si      -0.89358795       3.34563761      -0.11781954       0.00000000
Si       0.74935629       2.25455054       2.71067229       0.00000000
Si       3.55400559      -0.47586348      -0.75519717       0.00000000
Si      -0.82732023      -3.54731040      -1.11880554       0.00000000
