10
Lattice="16.28999089631971 0.0 0.0 0.0 16.28999089631971 0.0 0.0 0.0 34.28971787722196" Properties=species:S:1:pos:R:3:initial_magmoms:R:1 pbc="T T T"
Si       1.28875144       1.94645952      -0.26437387       0.00000000
Si      -0.60646041      -0.83790873      -2.12068308       0.00000000
Si       1.43838975      -1.85453505       0.48492546       0.00000000
Si      -1.67751162       0.30147903       1.73002010       0.00000000
Si       1.89624464       2.40388272       1.95304055       0.00000000
Si       1.38770667      -1.82428452      -2.90986137       0.00000000
Si      -1.92634137      -2.70922411      -1.72141338       0.00000000
Si      -2.95774272      -1.70284257       1.84969129       0.00000000
Si      -1.51801623       0.75618180      -3.56743566       0.00000000
Si       3.47078717       1.57556880      -1.06209032       0.00000000
