10
Lattice="16.28999089631971 0.0 0.0 0.0 16.28999089631971 0.0 0.0 0.0 34.28971787722196" Properties=species:S:1:pos:R:3:initial_magmoms:R:1 pbc="T T T"
Si      -1.20793608       1.35408996      -1.51557209       0.00000000
Si      -1.46981412      -1.36085031       1.36287989       0.00000000
Si       0.92724309       1.95804171       1.23371045       0.00000000
Si       1.50894270      -1.35933534      -1.46993245       0.00000000
Si      -2.31765975       0.41980959       2.74753376       0.00000000
Si      -2.38752756       2.85622344      -0.15080626       0.00000000
Si       0.00729792      -2.59678890       2.68697808       0.00000000
Si      -2.56085316       0.00444717      -2.87255414       0.00000000
Si       2.75639832       2.75563269      -0.09470825       0.00000000
Si       0.15508080      -2.71034649      -2.86915946       0.00000000
