10
Lattice="16.28999089631971 0.0 0.0 0.0 16.28999089631971 0.0 0.0 0.0 34.28971787722196" Properties=species:S:1:pos:R:3:initial_magmoms:R:1 pbc="T T T"
Si       0.60749320       0.45742320       2.21741443       0.00000000
Si      -1.28875144      -1.94645952       0.26437387       0.00000000
Si       2.18203573      -0.37089072      -0.79771644       0.00000000
Si      -0.92405092       1.67109336      -1.49266654       0.00000000
Si      -0.47851942       2.46021354       2.50284220       0.00000000
Si       1.77024082      -2.08279053      -2.35337323       0.00000000
Si       2.67800107       1.64853171      -2.05501823       0.00000000
Si      -1.12290295       0.45476793      -3.59754205       0.00000000
Si      -1.89521185      -2.78436825      -1.85630920       0.00000000
Si       3.51289615      -1.18918629       1.12065719       0.00000000
