10
Lattice="16.28999089631971 0.0 0.0 0.0 16.28999089631971 0.0 0.0 0.0 34.28971787722196" Properties=species:S:1:pos:R:3:initial_magmoms:R:1 pbc="T T T"
Si       1.93968288       0.93817368       0.91347859       0.00000000
Si       0.14737563      -0.91054584      -2.17619816       0.00000000
Si      -1.89925273       1.47624867      -0.17052286       0.00000000
Si      -0.49596534      -2.01942243       1.25730179       0.00000000
Si      -1.74698033      -2.32134129      -2.15096091       0.00000000
Si       1.39152438       0.83017098       3.26071396       0.00000000
Si      -3.60205199       0.02256165       0.56235169       0.00000000
Si      -2.67800107      -1.64853171       2.05501823       0.00000000
Si       3.82150368      -0.26179659       0.10653821       0.00000000
Si      -0.90776025      -3.73132224      -0.29835500       0.00000000
