10
Lattice="16.28999089631971 0.0 0.0 0.0 16.28999089631971 0.0 0.0 0.0 34.28971787722196" Properties=species:S:1:pos:R:3:initial_magmoms:R:1 pbc="T T T"
Si       1.36113768       1.34716671       1.36259528       0.00000000
Si       1.31554849      -1.28888109      -1.46435351       0.00000000
Si      -1.35322659      -1.36783872       1.35998926       0.00000000
Si      -1.46686563       1.23729066      -1.40577635       0.00000000
Si      -0.55345275      -2.31238179      -2.67379539       0.00000000
Si      -2.16544599      -0.49682871      -2.90340603       0.00000000
Si       2.72781656       2.68850160      -0.01200484       0.00000000
Si      -2.71821456       2.70184202      -0.00981029       0.00000000
Si       0.00575179       2.70421883       2.71992023       0.00000000
Si      -2.71122615      -0.00930159       2.71899441       0.00000000
