10
Lattice="16.28999089631971 0.0 0.0 0.0 16.28999089631971 0.0 0.0 0.0 34.28971787722196" Properties=species:S:1:pos:R:3:initial_magmoms:R:1 pbc="T T T"
Si      -2.01968307      -0.25591590       1.30866781       0.00000000
Si       1.15108791      -2.16169929      -0.12502038       0.00000000
Si       1.54637127       1.45240893       1.32992745       0.00000000
Si      -0.73687815       1.29248511      -2.02909519       0.00000000
Si      -3.19101552       1.67661960       0.62825656       0.00000000
Si      -2.05337079       2.98658321      -0.98195520       0.00000000
Si       2.50441550      -1.86025284      -2.19697774       0.00000000
Si      -3.22330230      -2.08191087       0.40533898       0.00000000
Si       1.99775251      -2.42582535       2.25924790       0.00000000
Si       1.88265389       3.53031083       0.25748164       0.00000000
