10
Lattice="16.28999089631971 0.0 0.0 0.0 16.28999089631971 0.0 0.0 0.0 34.28971787722196" Properties=species:S:1:pos:R:3:initial_magmoms:R:1 pbc="T T T"
Si       1.11459438      -1.52047602       1.41657762       0.00000000
Si      -0.64584963       1.80336816       1.39254051       0.00000000
Si       1.78963799       0.88184286      -1.31487426       0.00000000
Si      -2.05516269      -0.78283224      -1.03664733       0.00000000
Si       0.68999553       0.44013951      -3.32147538       0.00000000
Si       1.70102202      -2.69066817      -1.56553223       0.00000000
Si       3.07063961      -0.31407120       1.89663394       0.00000000
Si      -0.58764546      -2.53469142       2.65615161       0.00000000
Si       3.34310615      -0.96505218      -1.45028443       0.00000000
Si      -2.11465377       3.17055353       0.14439408       0.00000000
