10
Lattice="16.28999089631971 0.0 0.0 0.0 16.28999089631971 0.0 0.0 0.0 34.28971787722196" Properties=species:S:1:pos:R:3:initial_magmoms:R:1 pbc="T T T"
Si      -1.08601262       2.00279034       0.28542777       0.00000000
Si      -0.60749320      -0.45742320      -2.21741443       0.00000000
Si       2.35646253       0.22286349       0.23937665       0.00000000
Si      -0.59859071      -1.16898669       2.01249896       0.00000000
Si       1.57454253      -0.82831392      -3.01513087       0.00000000
Si       2.90540295      -1.64660949      -1.09675724       0.00000000
Si       0.22392071       0.41811543       3.49059236       0.00000000
Si      -0.48072604       2.45757456       2.48240551       0.00000000
Si       2.44804491       0.29198196       2.66276953       0.00000000
Si      -1.89624464      -2.40388272      -1.95304055       0.00000000
