10
Lattice="16.28999089631971 0.0 0.0 0.0 16.28999089631971 0.0 0.0 0.0 34.28971787722196" Properties=species:S:1:pos:R:3:initial_magmoms:R:1 pbc="T T T"
Si      -1.54200718      -0.99575883      -1.55274216       0.00000000
Si       0.93176682      -2.11843305       0.71336369       0.00000000
Si       1.13589681       1.52612865      -1.50833695       0.00000000
Si      -1.42400876       0.36649242       2.05045770       0.00000000
Si       1.24611495       1.62613296       1.68671217       0.00000000
Si      -0.08683222      -2.39213763      -2.94380821       0.00000000
Si       1.95929115       3.26215395      -0.06669354       0.00000000
Si      -3.37116241      -1.79334981      -0.22432346       0.00000000
Si       3.35602833       0.37471887       1.83100338       0.00000000
Si      -2.82658771      -1.65196890       2.19526326       0.00000000
