10
Lattice="16.28999089631971 0.0 0.0 0.0 16.28999089631971 0.0 0.0 0.0 34.28971787722196" Properties=species:S:1:pos:R:3:initial_magmoms:R:1 pbc="T T T"
Si      -1.68682323      -0.78196887      -1.59361553       0.00000000
Si      -1.35332759      -0.30144645       2.07195736       0.00000000
Si       1.69261245      -1.83282048      -0.08061517       0.00000000
Si       1.02050334       1.87678719      -1.51077152       0.00000000
Si       2.41383591       1.11882978       2.03516447       0.00000000
Si      -0.33977845      -2.08656981      -2.98715044       0.00000000
Si      -2.50441550       1.86025284       2.19697774       0.00000000
Si       2.37345300       0.64723428      -2.98217843       0.00000000
Si      -3.39515270      -1.81755675      -0.34961816       0.00000000
Si       3.53222586      -0.80425359      -1.49763855       0.00000000
