10
Lattice="16.28999089631971 0.0 0.0 0.0 16.28999089631971 0.0 0.0 0.0 34.28971787722196" Properties=species:S:1:pos:R:3:initial_magmoms:R:1 pbc="T T T"
Si      -1.93456360      -0.14965623       1.32512689       0.00000000
Si       0.93450354      -2.17098459      -0.26790572       0.00000000
Si       1.76361567       1.40972031       0.78636654       0.00000000
Si      -0.84666461       0.26412606      -2.38426829       0.00000000
Si      -0.83492114       0.29204712       3.33172801       0.00000000
Si       2.38129989      -2.02297365       1.58699761       0.00000000
Si       3.49343448      -0.14234202       0.72707958       0.00000000
Si       0.71854701      -1.55484792       3.19631784       0.00000000
Si      -2.59885351      -2.42717742       0.84531060       0.00000000
Si       1.80064284       3.12129173      -0.82844005       0.00000000
