10
Lattice="16.28999089631971 0.0 0.0 0.0 16.28999089631971 0.0 0.0 0.0 34.28971787722196" Properties=species:S:1:pos:R:3:initial_magmoms:R:1 pbc="T T T"
Si      -1.15108791       2.16169929       0.12502038       0.00000000
Si      -1.22716221      -2.10654135      -0.31100791       0.00000000
Si       1.35332759       0.30144645      -2.07195736       0.00000000
Si       0.84666461      -0.26412606       2.38426829       0.00000000
Si      -2.04182511      -1.51611030      -2.42157552       0.00000000
Si       1.78116815      -2.43511065       2.11636257       0.00000000
Si      -0.33349564      -0.48052242      -3.66557289       0.00000000
Si      -2.99892777      -1.92423996       1.17819536       0.00000000
Si      -1.08789900      -0.41378229       3.70939517       0.00000000
Si       0.39528337       3.61410822       1.45494783       0.00000000
