10
Lattice="10.86 0.0 0.0 0.0 10.86 0.0 0.0 0.0 10.86" Properties=species:S:1:pos:R:3:initial_magmoms:R:1 pbc="T T T"
Si      -1.37123790      -1.26154104       1.23310956       0.00000000
Si       1.34376210       1.45345896       1.23310956       0.00000000
Si       1.34376210      -1.26154104      -1.48189044       0.00000000
Si      -0.01373790      -2.61904104       2.59060956       0.00000000
Si      -2.67559992       0.04968450       2.55415254       0.00000000
Si       2.70126210       0.09595896       2.59060956       0.00000000
Si       2.70126210      -2.61904104      -0.12439044       0.00000000
Si      -2.72873790      -2.61904104      -0.12439044       0.00000000
Si       0.11119554       2.60937564       2.80334610       0.00000000
Si      -0.01373790      -2.61904104      -2.83939044       0.00000000
