10
Lattice="16.290000149 0.0 0.0 0.0 16.290000149 0.0 0.0 0.0 29.1751946751" Properties=species:S:1:pos:R:3:initial_magmoms:R:1 pbc="T T T"
Si      -1.33740901      -1.38095218       1.31912725       0.00000000
Si       1.30372129      -1.34436484      -1.43308556       0.00000000
Si       1.22979727       1.43849335       1.42112373       0.00000000
Si      -1.40036986       1.34154016      -1.36131458       0.00000000
Si       0.20932650      -2.69879690       2.51493096       0.00000000
Si      -2.70861977      -0.00720018       2.65249200       0.00000000
Si       2.64292220       2.72065808       0.04099115       0.00000000
Si      -0.29318742       2.75439468       2.61885300       0.00000000
Si       2.65901672       0.01053963      -2.76770484       0.00000000
Si      -0.06566499       2.70627401      -2.73106080       0.00000000
