10
Lattice="16.290000149 0.0 0.0 0.0 16.290000149 0.0 0.0 0.0 29.1751946751" Properties=species:S:1:pos:R:3:initial_magmoms:R:1 pbc="T T T"
Si       1.22246677      -1.52823007       1.24613091       0.00000000
Si      -1.38842929      -1.35089713      -1.29108989       0.00000000
Si      -1.06357411       1.45917676       1.47623568       0.00000000
Si       1.37344249       1.32416524      -1.35425419       0.00000000
Si       0.75324961       2.19256886       2.86281598       0.00000000
Si      -2.37514718       0.10979460       2.86914699       0.00000000
Si      -0.02674818      -2.69553890      -2.62535907       0.00000000
Si      -0.02129103       2.60855030      -2.71209692       0.00000000
Si      -2.74237265       0.00931788      -2.59285790       0.00000000
Si      -2.50709618       2.81877276       0.19684504       0.00000000
