10
Lattice="16.290000149 0.0 0.0 0.0 16.290000149 0.0 0.0 0.0 29.1751946751" Properties=species:S:1:pos:R:3:initial_magmoms:R:1 pbc="T T T"
Si      -1.35578413      -1.31440753       1.39953409       0.00000000
Si       1.34343631       1.36956547       1.36353190       0.00000000
Si      -1.37365426       1.35138583      -1.36130000       0.00000000
Si       1.42716691      -1.37513665      -1.29419997       0.00000000
Si      -2.67605606      -2.65541663       0.00510858       0.00000000
Si      -2.54739764      -0.11613141      -2.81129258       0.00000000
Si       2.68517846      -0.00609246      -2.72047020       0.00000000
Si       2.71065602       2.71966439       0.01280499       0.00000000
Si      -0.00338832      -2.68177385       2.75594724       0.00000000
Si       2.80183116      -2.63971307       0.12356278       0.00000000
