10
Lattice="16.290000149 0.0 0.0 0.0 16.290000149 0.0 0.0 0.0 29.1751946751" Properties=species:S:1:pos:R:3:initial_magmoms:R:1 pbc="T T T"
Si       1.35537688       1.36808308       1.33742010       0.00000000
Si      -1.32823286       1.36080145      -1.37418084       0.00000000
Si       1.38429163      -1.35494683      -1.33438588       0.00000000
Si      -1.34740781      -1.35372996       1.37613558       0.00000000
Si       2.71023248       0.00091224       2.67373154       0.00000000
Si      -2.69816159      -0.00829161      -2.69949324       0.00000000
Si       0.05844852      -2.69190623       2.70903353       0.00000000
Si       0.02759526      -2.71756298      -2.68493482       0.00000000
Si      -2.69382845       2.71215470      -0.02444881       0.00000000
Si      -0.02265939       2.71358822       2.69508778       0.00000000
