10
Lattice="16.290000149 0.0 0.0 0.0 16.290000149 0.0 0.0 0.0 29.1751946751" Properties=species:S:1:pos:R:3:initial_magmoms:R:1 pbc="T T T"
Si       0.43769601      -0.24861798       2.28320785       0.00000000
Si      -1.71968645       1.62932581       0.10383452       0.00000000
Si      -0.04987998      -2.29428362      -0.66606969       0.00000000
Si       1.87106942       0.89770933      -1.27469343       0.00000000
H       -0.92844856       0.15822477      -2.54118863       0.00000000
Si       2.15397785      -2.67496463       0.13741517       0.00000000
Si      -0.32562081       3.36649143      -0.81235412       0.00000000
Si       2.07071966      -1.98389396       2.36726071       0.00000000
Si       3.46535544       1.71199757       0.28291186       0.00000000
Si      -3.77691798       0.62056756      -0.61965196       0.00000000
