10
Lattice="16.290000149 0.0 0.0 0.0 16.290000149 0.0 0.0 0.0 29.1751946751" Properties=species:S:1:pos:R:3:initial_magmoms:R:1 pbc="T T T"
Si      -0.90557740       0.89844238      -0.80926155       0.00000000
Si       0.90129313      -1.55782900       1.49012307       0.00000000
H       -2.01745136      -0.34893180       1.41000798       0.00000000
Si       1.93326464       0.58386619       1.88454252       0.00000000
Si       1.87230746      -1.96139421      -0.66332723       0.00000000
Si      -1.40353012      -1.65319881       1.85329589       0.00000000
Si      -2.21645000      -0.57101338      -2.08827291       0.00000000
Si       0.44186625       2.20317365      -2.20348575       0.00000000
Si      -2.04916799       2.32393142       0.65539157       0.00000000
Si       3.05276232       2.02584071       0.33373505       0.00000000
