10
Lattice="16.290000149 0.0 0.0 0.0 16.290000149 0.0 0.0 0.0 29.1751946751" Properties=species:S:1:pos:R:3:initial_magmoms:R:1 pbc="T T T"
Si      -1.41312493      -1.28216473       1.38013258       0.00000000
Si       1.32341590      -1.39526295      -1.36344437       0.00000000
Si       1.39887118       1.36941886       1.31620973       0.00000000
Si      -1.34824186       1.33275007      -1.40592346       0.00000000
Si       0.00636939       2.72264546       2.62935607       0.00000000
Si      -2.64292220      -2.72065808      -0.04099115       0.00000000
Si       2.58450626      -2.78658372       0.06777398       0.00000000
Si       2.69022836      -0.03624525      -2.74019263       0.00000000
Si      -2.71793765       2.72002277      -0.09484856       0.00000000
Si       2.73927756       2.71788878      -0.05630813       0.00000000
