10
Lattice="16.290000149 0.0 0.0 0.0 16.290000149 0.0 0.0 0.0 29.1751946751" Properties=species:S:1:pos:R:3:initial_magmoms:R:1 pbc="T T T"
Si       1.41892417      -1.33050205      -1.30243904       0.00000000
Si       1.37334475       1.32667390       1.36382365       0.00000000
Si      -1.35149986      -1.37560906       1.34696039       0.00000000
Si      -1.35158131       1.31885470      -1.40799490       0.00000000
Si       0.10681353      -2.69042384      -2.64796401       0.00000000
Si       0.00402363       2.70575273       2.68639358       0.00000000
Si       2.75341728       2.64442088       0.00020423       0.00000000
Si      -2.72145629      -0.01215234       2.68333018       0.00000000
Si      -2.71445159       2.69249267      -0.05826286       0.00000000
Si       0.01563840       2.66895362      -2.75872180       0.00000000
