10
Lattice="16.290000149 0.0 0.0 0.0 16.290000149 0.0 0.0 0.0 29.1751946751" Properties=species:S:1:pos:R:3:initial_magmoms:R:1 pbc="T T T"
Si      -1.43319421       1.31965291      -1.28306671       0.00000000
Si      -1.38007252      -1.31774698       1.36361942       0.00000000
Si       1.33532389       1.40437720       1.33864546       0.00000000
Si       1.34627077      -1.27923742      -1.46080200       0.00000000
Si      -0.07734492       2.65992896      -2.59857040       0.00000000
Si       2.68579748      -2.61568532      -0.03886136       0.00000000
Si      -0.02425581      -2.68799663       2.70273168       0.00000000
Si      -2.75341728      -2.64442088      -0.00020423       0.00000000
Si       2.69811272       0.06475275       2.70293591       0.00000000
Si      -2.74939365       0.06133185       2.68618935       0.00000000
