10
Lattice="16.290000149 0.0 0.0 0.0 16.290000149 0.0 0.0 0.0 29.1751946751" Properties=species:S:1:pos:R:3:initial_magmoms:R:1 pbc="T T T"
Si       1.35706127      -1.40752117       1.31323386       0.00000000
Si      -1.46045553       1.28124109       1.34392617       0.00000000
Si       1.19023538       1.69324778      -1.18795558       0.00000000
Si      -1.10701791      -1.70735492      -1.24960276       0.00000000
Si       2.36412537      -2.64816758      -0.52935473       0.00000000
Si      -2.77628192      -2.49069215       0.19821627       0.00000000
Si       2.53080465       0.05999607       2.76322645       0.00000000
Si      -2.86333568       2.45058617      -0.11868469       0.00000000
Si      -0.13034607      -2.60732855       2.74871179       0.00000000
Si       0.30689383      -3.65692584      -1.25284121       0.00000000
