10
Lattice="16.290000149 0.0 0.0 0.0 16.290000149 0.0 0.0 0.0 29.1751946751" Properties=species:S:1:pos:R:3:initial_magmoms:R:1 pbc="T T T"
Si      -1.39473352       1.28438506      -1.35784274       0.00000000
Si       1.44037810      -1.37142253      -1.23043466       0.00000000
Si      -1.37344249      -1.32416524       1.35425419       0.00000000
Si       0.88425379       1.88133212       1.08315828       0.00000000
Si      -2.43701660       0.13501152       2.83048986       0.00000000
Si       0.05773176      -2.72135855      -2.57150166       0.00000000
Si      -2.56940543       2.73619874       0.06176389       0.00000000
Si      -0.00995319       2.62003475      -2.69727592       0.00000000
Si       2.78190849      -0.04013856      -2.60499478       0.00000000
Si      -2.74387134      -0.06051735      -2.67005547       0.00000000
