10
Lattice="16.290000149 0.0 0.0 0.0 16.290000149 0.0 0.0 0.0 29.1751946751" Properties=species:S:1:pos:R:3:initial_magmoms:R:1 pbc="T T T"
Si      -1.36868581      -1.34886088      -1.33794525       0.00000000
Si      -1.36531378       1.34729704       1.35016966       0.00000000
Si       1.32517522      -1.38350971       1.36006005       0.00000000
Si       1.38506818       1.33159348      -1.36793735       0.00000000
Si       0.07407063      -2.68048694      -2.62077856       0.00000000
Si       2.69510396      -0.01441665       2.68537244       0.00000000
Si      -0.00641826       2.71236647       2.68146297       0.00000000
Si      -2.69472440       2.71396289      -0.02570335       0.00000000
Si       0.05512536       2.74040156      -2.67912895       0.00000000
Si      -2.72111420      -0.03059262       2.70594096       0.00000000
