10
Lattice="16.290000149 0.0 0.0 0.0 16.290000149 0.0 0.0 0.0 29.1751946751" Properties=species:S:1:pos:R:3:initial_magmoms:R:1 pbc="T T T"
Si      -1.82373068      -1.32139594       0.62522442       0.00000000
Si       1.79628203      -1.52689429      -0.12921694       0.00000000
Si      -1.03412179       0.80409070      -1.96492019       0.00000000
Si       0.64391113       1.76536361       1.57543134       0.00000000
H        0.00904095      -1.17406918       3.06467915       0.00000000
Si      -2.56306862       2.06591411      -0.74741014       0.00000000
Si       3.45232344       0.20719251      -0.09884556       0.00000000
Si      -3.48074949       0.33181101       0.53130947       0.00000000
Si      -1.36475992      -1.73884349       2.83827964       0.00000000
Si       2.87117769       1.26498367       1.90543196       0.00000000
