10
Lattice="16.290000149 0.0 0.0 0.0 16.290000149 0.0 0.0 0.0 29.1751946751" Properties=species:S:1:pos:R:3:initial_magmoms:R:1 pbc="T T T"
Si       1.24936156      -1.37046142       1.41337188       0.00000000
Si      -1.28736613       1.44910954       1.32800526       0.00000000
Si       1.90764047       0.79017904      -1.12211883       0.00000000
Si      -1.83912473      -0.88117498      -1.18601251       0.00000000
H        0.69605542      -1.82827559      -1.92132953       0.00000000
Si       1.25433001       1.21479418      -3.25346892       0.00000000
Si       2.66905136       0.05861142       2.64922729       0.00000000
Si      -2.71461449       0.05835078       2.60957821       0.00000000
Si       2.74729224      -2.60616871       0.13333939       0.00000000
Si      -3.47214837       0.85410100      -1.27006537       0.00000000
