10
Lattice="16.290000149 0.0 0.0 0.0 16.290000149 0.0 0.0 0.0 29.1751946751" Properties=species:S:1:pos:R:3:initial_magmoms:R:1 pbc="T T T"
Si       1.38971620       1.43635447      -1.18092435       0.00000000
Si       1.69881896      -1.59992236       0.01689244       0.00000000
Si      -0.95952988       1.26801361       1.75433363       0.00000000
Si      -1.59428602      -0.81428824      -1.55760529       0.00000000
Si      -2.07554150       1.21050991      -2.62226650       0.00000000
Si      -0.17438445       2.71293662      -2.31706479       0.00000000
Si       0.62794693      -3.35961705      -1.04715609       0.00000000
Si      -2.41059422       2.68426622       0.53539400       0.00000000
Si      -0.30050163      -2.31583529      -2.88078790       0.00000000
Si       2.35212941      -2.02453751       2.14824252       0.00000000
