10
Lattice="16.290000149 0.0 0.0 0.0 16.290000149 0.0 0.0 0.0 29.1751946751" Properties=species:S:1:pos:R:3:initial_magmoms:R:1 pbc="T T T"
Si      -1.15222429      -0.12978243       2.05495484       0.00000000
Si      -1.52954956       0.98940574      -1.50558592       0.00000000
Si       0.99427645      -1.76779082      -1.26836241       0.00000000
Si       1.52438563       1.84464704       0.42470331       0.00000000
H        0.69727717      -2.97290874       1.91683947       0.00000000
Si       2.29309445      -0.46964070      -2.76566258       0.00000000
H       -2.05873022      -2.86062177      -0.84430096       0.00000000
Si      -2.56616372       2.61038619      -0.19532793       0.00000000
Si      -0.24229746       2.43245947      -2.78591016       0.00000000
Si       0.40922109       0.64878184       3.64978768       0.00000000
