10
Lattice="16.290000149 0.0 0.0 0.0 16.290000149 0.0 0.0 0.0 29.1751946751" Properties=species:S:1:pos:R:3:initial_magmoms:R:1 pbc="T T T"
Si       1.35334063       1.39766572      -1.32053350       0.00000000
Si      -1.35179308       1.36928854       1.35886387       0.00000000
Si       1.37647243      -1.34724817       1.35959325       0.00000000
Si      -1.36234900      -1.36777357      -1.36359900       0.00000000
Si       2.73522135       0.04109967      -2.64540534       0.00000000
Si      -2.70817994      -2.69666291       0.01814697       0.00000000
Si       2.69030981       2.72246627       0.08460806       0.00000000
Si      -2.69867310       0.02169828       2.72750142       0.00000000
Si       0.02122587      -2.69114060       2.73561213       0.00000000
Si      -2.71753040       2.71725347      -0.01321636       0.00000000
