10
Lattice="16.290000149 0.0 0.0 0.0 16.290000149 0.0 0.0 0.0 29.1751946751" Properties=species:S:1:pos:R:3:initial_magmoms:R:1 pbc="T T T"
Si      -1.30719106       1.42472341       1.30370437       0.00000000
Si       1.26356644       1.47898540      -1.33424000       0.00000000
Si       1.45106434      -1.41625261       1.21893963       0.00000000
Si      -1.38038203      -1.02977236      -1.63065998       0.00000000
Si       0.33505272      -1.47375631      -3.15766049       0.00000000
Si      -0.43132662       2.40917699      -2.63638729       0.00000000
Si       2.23620977       0.02867040      -2.85245878       0.00000000
Si      -2.22912362       0.81542854      -2.75238787       0.00000000
Si       2.41059422      -2.68426622      -0.53539400       0.00000000
Si      -2.60776838      -0.05877432       2.57810984       0.00000000
