10
Lattice="16.290000149 0.0 0.0 0.0 16.290000149 0.0 0.0 0.0 29.1751946751" Properties=species:S:1:pos:R:3:initial_magmoms:R:1 pbc="T T T"
Si       1.42296409       1.38961846       1.18471713       0.00000000
Si      -1.32030451       1.43865136      -1.27831115       0.00000000
Si       1.43464402      -1.32318784      -1.28259991       0.00000000
Si      -1.38478033      -1.33564969       1.33943319       0.00000000
Si       0.05809014      -2.66375711      -2.61573125       0.00000000
Si      -2.66836718       0.07615575      -2.62617597       0.00000000
Si       0.00995319      -2.62003475       2.69727592       0.00000000
Si      -2.55945224       0.11616399       2.75903981       0.00000000
Si       2.71785620       0.08873163       2.60496561       0.00000000
Si       0.06977007       2.79800301      -2.59081564       0.00000000
