10
Lattice="16.290000149 0.0 0.0 0.0 16.290000149 0.0 0.0 0.0 29.1751946751" Properties=species:S:1:pos:R:3:initial_magmoms:R:1 pbc="T T T"
Si       1.36000324      -1.35294804       1.35285378       0.00000000
Si      -1.36272367       1.36244837       1.34570585       0.00000000
Si       1.34972425       1.38799109      -1.33529031       0.00000000
Si      -1.34680834      -1.38775977      -1.33949154       0.00000000
Si      -2.78086593      -0.04142710      -2.60149376       0.00000000
Si       0.00009774      -2.71635590       2.69535036       0.00000000
Si       2.79248070       0.05636503      -2.61812362       0.00000000
Si      -0.00270414       2.70625935       2.70859590       0.00000000
Si      -0.02756268       2.72792505      -2.69430005       0.00000000
Si      -2.72720666       0.01501449       2.69610892       0.00000000
