10
Lattice="16.290000149 0.0 0.0 0.0 16.290000149 0.0 0.0 0.0 29.1751946751" Properties=species:S:1:pos:R:3:initial_magmoms:R:1 pbc="T T T"
Si      -1.67713697       1.68000401       0.24901029       0.00000000
Si       0.35720712      -0.23682402       2.36149861       0.00000000
Si       1.63784548       1.05922468      -1.43194773       0.00000000
Si      -1.06956883      -1.69305230      -1.38270000       0.00000000
H        1.88627613      -1.63896949       0.26059284       0.00000000
H        0.54776754       2.45993663       1.37873217       0.00000000
H       -1.08414838       0.04872339       2.80513662       0.00000000
Si      -2.41085486      -0.27969930      -2.75565549       0.00000000
Si       0.34782408       2.47202381      -2.79305809       0.00000000
Si      -3.53618436       0.82859086      -1.00079670       0.00000000
