10
Lattice="16.290000149 0.0 0.0 0.0 16.290000149 0.0 0.0 0.0 29.1751946751" Properties=species:S:1:pos:R:3:initial_magmoms:R:1 pbc="T T T"
Si      -1.35706127       1.40752117      -1.31323386       0.00000000
Si       1.17374338       1.46751724       1.44999259       0.00000000
Si      -1.48740733      -1.19980738       1.43547793       0.00000000
Si       1.00706410      -1.24064641      -1.84258859       0.00000000
Si      -2.46407918      -0.29983374      -2.56283663       0.00000000
Si      -1.05016744      -2.24940467      -2.56607507       0.00000000
Si       2.40112973       0.49651920      -2.75877723       0.00000000
Si      -0.12865842      -2.53928522       2.81640116       0.00000000
Si       2.54739764       0.11613141       2.81129258       0.00000000
Si       2.47432070       2.95101498       0.17558712       0.00000000
