10
Lattice="16.290000149 0.0 0.0 0.0 16.290000149 0.0 0.0 0.0 29.1751946751" Properties=species:S:1:pos:R:3:initial_magmoms:R:1 pbc="T T T"
H       -0.08462655      -1.54538344       0.83846592       0.00000000
Si      -0.58114576       1.05779116       2.00427752       0.00000000
Si       2.20812581      -0.73376677      -0.47908587       0.00000000
Si      -1.65604142      -1.73408681      -0.03037138       0.00000000
Si       0.04233771       2.19797388      -0.99892949       0.00000000
Si       0.67150639       2.82458014       1.15647554       0.00000000
Si       1.89716600       0.17122419      -2.70404457       0.00000000
Si      -3.45232344      -0.20719251       0.09884556       0.00000000
Si      -0.22323816      -0.80593147      -3.37589095       0.00000000
Si       1.95134654      -2.78905980       0.73361027       0.00000000
