10
Lattice="16.290000149 0.0 0.0 0.0 16.290000149 0.0 0.0 0.0 29.1751946751" Properties=species:S:1:pos:R:3:initial_magmoms:R:1 pbc="T T T"
Si      -1.32027193      -1.34100910      -1.39442551       0.00000000
Si       1.35578413       1.31440753      -1.39953409       0.00000000
Si      -1.37893222       1.35930277       1.33601969       0.00000000
Si       1.35239581      -1.36736632       1.35641315       0.00000000
Si       2.69922044       2.68397300      -0.03600219       0.00000000
Si      -2.69449472      -2.70189200      -0.03255952       0.00000000
Si       0.09888030      -2.72298755      -2.67846959       0.00000000
Si      -0.01889640       2.71371854       2.68974872       0.00000000
Si       2.69930189      -0.01049076       2.71895309       0.00000000
Si      -0.01787013       2.66579336      -2.76083408       0.00000000
