10
Lattice="16.290000149 0.0 0.0 0.0 16.290000149 0.0 0.0 0.0 29.1751946751" Properties=species:S:1:pos:R:3:initial_magmoms:R:1 pbc="T T T"
Si       1.36003582       1.35441577       1.35372903       0.00000000
Si      -1.33102985      -1.35762490       1.38345856       0.00000000
Si       1.37893222      -1.35930277      -1.33601969       0.00000000
Si      -1.36936999       1.34889346      -1.36373612       0.00000000
Si      -2.66599422      -2.73458604       0.03824868       0.00000000
Si      -0.00899208       2.70800075       2.70541580       0.00000000
Si       2.71528238       2.69830820      -0.02228985       0.00000000
Si      -0.02353905       2.67778280      -2.74548210       0.00000000
Si      -2.71933859       0.00338832       2.70669951       0.00000000
Si       2.70827768      -0.00633681       2.71930319       0.00000000
