10
Lattice="16.290000149 0.0 0.0 0.0 16.290000149 0.0 0.0 0.0 29.1751946751" Properties=species:S:1:pos:R:3:initial_magmoms:R:1 pbc="T T T"
Si       1.35936793      -1.35045730      -1.32948445       0.00000000
Si      -1.17765298      -1.52914231       1.31650148       0.00000000
Si       1.54126207       1.31154049       1.18996867       0.00000000
Si      -1.03027898       1.54394992      -1.48259587       0.00000000
H        2.73316881      -0.78568300      -1.10308494       0.00000000
Si       0.13061322       2.49223970       2.65937734       0.00000000
Si      -1.40838780      -3.38177145      -0.11862634       0.00000000
Si       2.32140647       2.81416106      -0.51815146       0.00000000
Si       0.89995735      -3.56169450      -0.71552165       0.00000000
Si      -2.64401363      -0.31967496       2.65465096       0.00000000
