10
Lattice="16.290000149 0.0 0.0 0.0 16.290000149 0.0 0.0 0.0 29.1751946751" Properties=species:S:1:pos:R:3:initial_magmoms:R:1 pbc="T T T"
Si      -1.33496437      -1.37696113      -1.34520988       0.00000000
Si       1.34295413      -1.35801586       1.36370695       0.00000000
Si       1.33102985       1.35762490      -1.38345856       0.00000000
Si      -1.38830875       1.36101322       1.32324095       0.00000000
Si      -2.66490719       0.03184695      -2.65640148       0.00000000
Si      -0.03655476       2.71373483       2.68470141       0.00000000
Si       2.69106567       2.71204067      -0.02972952       0.00000000
Si       2.69090277       0.00382815       2.71440176       0.00000000
Si       2.70207771      -2.71344161       0.00948194       0.00000000
Si      -2.72003255      -2.70855461       0.02272748       0.00000000
