10
Lattice="16.290000149 0.0 0.0 0.0 16.290000149 0.0 0.0 0.0 29.1751946751" Properties=species:S:1:pos:R:3:initial_magmoms:R:1 pbc="T T T"
Si      -1.35584929      -1.34027605       1.31550369       0.00000000
Si      -1.40629942       1.36332640      -1.25466174       0.00000000
Si       1.33714837      -1.15416280      -1.55778326       0.00000000
Si       1.42200298       1.45989352       1.22517729       0.00000000
Si       0.42604866       2.38604519      -2.19635534       0.00000000
Si       2.17238555       0.84369169      -2.64753543       0.00000000
Si       0.07734492      -2.65992896       2.59857040       0.00000000
Si      -2.69188994       0.10106316       2.60472637       0.00000000
Si       2.76468996      -2.52099155      -0.22273511       0.00000000
Si      -2.66043395      -2.63539622      -0.16035562       0.00000000
