10
Lattice="16.290000149 0.0 0.0 0.0 16.290000149 0.0 0.0 0.0 29.1751946751" Properties=species:S:1:pos:R:3:initial_magmoms:R:1 pbc="T T T"
Si       0.27365734      -0.82375273      -2.15385875       0.00000000
Si      -2.26789219       0.48808098      -0.11833459       0.00000000
Si       1.28189432       1.98991963       0.11734263       0.00000000
Si       1.03027898      -1.54394992       1.48259587       0.00000000
Si      -2.54834083       1.22248306       2.08894394       0.00000000
Si       3.35168545       1.27021113       0.96444441       0.00000000
Si       2.57154105      -0.23240943       2.67256453       0.00000000
Si       1.19133821       0.91035037      -3.43257835       0.00000000
Si       1.93067616      -2.47695968      -2.05994380       0.00000000
Si       2.38964691      -2.89440723       0.15311142       0.00000000
