10
Lattice="16.290000149 0.0 0.0 0.0 16.290000149 0.0 0.0 0.0 29.1751946751" Properties=species:S:1:pos:R:3:initial_magmoms:R:1 pbc="T T T"
Si      -1.36879821       1.24038577      -1.44388038       0.00000000
Si       1.19975851      -1.40121694      -1.47442681       0.00000000
Si      -1.36674730      -1.42651531       1.30217646       0.00000000
Si       1.43503498       1.40823793       1.31527613       0.00000000
Si      -0.06750576       2.74390392       2.56473301       0.00000000
Si       2.55370187      -2.76143196      -0.17265880       0.00000000
Si       0.06266763      -2.64067418       2.68621852       0.00000000
Si      -2.77293270       2.55889838      -0.12991714       0.00000000
Si       2.74616823       2.64982916      -0.17405921       0.00000000
Si      -0.03515382       2.63800262      -2.78418883       0.00000000
