10
Lattice="16.290000149 0.0 0.0 0.0 16.290000149 0.0 0.0 0.0 29.1751946751" Properties=species:S:1:pos:R:3:initial_magmoms:R:1 pbc="T T T"
Si      -1.41742223       1.22482882      -1.37561043       0.00000000
Si      -1.31175389      -1.48760281       1.27235942       0.00000000
Si       1.50254074      -1.33566598      -1.24945689       0.00000000
Si       0.67233718       1.87623335       1.29669153       0.00000000
Si       0.04904919       2.60521085      -2.59113656       0.00000000
Si       0.24925329      -2.56675016       2.63732090       0.00000000
Si      -2.75752236       2.52698627       0.04793484       0.00000000
Si       0.06750576      -2.74390392      -2.56473301       0.00000000
Si      -2.70542693      -0.18500553      -2.69465016       0.00000000
Si      -0.98468164       3.52944030       1.20277658       0.00000000
