10
Lattice="16.290000149 0.0 0.0 0.0 16.290000149 0.0 0.0 0.0 29.1751946751" Properties=species:S:1:pos:R:3:initial_magmoms:R:1 pbc="T T T"
Si      -2.05332194       0.62238878      -0.88917241       0.00000000
Si       1.03661416      -1.62098045      -1.31025799       0.00000000
Si      -0.52632990      -1.25890261       1.92600048       0.00000000
Si       1.51588225       1.85265031       0.07626396       0.00000000
Si       2.32386626      -0.17792671      -2.59058224       0.00000000
Si      -3.30597408      -1.14440020      -0.04137043       0.00000000
Si       2.56616372      -2.61038619       0.19532793       0.00000000
Si       0.78315805       3.18020388      -1.71418856       0.00000000
Si      -2.13024332       0.28388257       3.01414771       0.00000000
Si       0.89342506       2.93057591       2.12179521       0.00000000
