10
Lattice="16.290000149 0.0 0.0 0.0 16.290000149 0.0 0.0 0.0 29.1751946751" Properties=species:S:1:pos:R:3:initial_magmoms:R:1 pbc="T T T"
Si       1.36721971       1.35009892      -1.35072691       0.00000000
Si      -1.34343631      -1.36956547      -1.36353190       0.00000000
Si       1.35158131      -1.31885470       1.40799490       0.00000000
Si      -1.36287028       1.37363797       1.34973203       0.00000000
Si       2.67180437       2.64521909       0.12513241       0.00000000
Si      -2.69922044      -2.68397300       0.03600219       0.00000000
Si       0.08373060      -2.74470213      -2.65773186       0.00000000
Si      -0.00412137       2.76198582      -2.65526656       0.00000000
Si       2.77050549      -2.64935675       0.10555585       0.00000000
Si      -2.71709057      -0.01817964      -2.72483189       0.00000000
