10
Lattice="16.290000149 0.0 0.0 0.0 16.290000149 0.0 0.0 0.0 29.1751946751" Properties=species:S:1:pos:R:3:initial_magmoms:R:1 pbc="T T T"
Si       1.42286635      -1.36849033       1.25768429       0.00000000
Si       1.37544616       1.32172174      -1.36321097       0.00000000
Si      -1.34175844       1.33079527       1.40533995       0.00000000
Si      -1.35845569      -1.38031687      -1.35244532       0.00000000
Si       0.11173311      -2.61008156       2.74701963       0.00000000
Si      -2.68903431       2.68468976       0.01960573       0.00000000
Si       0.00061902       2.67341708      -2.70987961       0.00000000
Si       2.59753826      -2.82030402      -0.16192233       0.00000000
Si       0.07113843       2.72730440       2.70302344       0.00000000
Si       2.78760999       2.64231947      -0.00259659       0.00000000
