10
Lattice="16.290000149 0.0 0.0 0.0 16.290000149 0.0 0.0 0.0 29.1751946751" Properties=species:S:1:pos:R:3:initial_magmoms:R:1 pbc="T T T"
Si      -1.56410065       1.27658215      -1.13614043       0.00000000
Si      -1.38971620      -1.43635447       1.18092435       0.00000000
Si       1.07901703      -1.11355183      -1.85959773       0.00000000
Si       1.56372598       1.11979090       1.47080909       0.00000000
Si       2.09738639      -2.45125406      -0.24186236       0.00000000
Si       0.30910275      -3.03627684       1.19781679       0.00000000
Si       0.03714120       2.32394771      -2.54492306       0.00000000
Si       1.82889461       0.76445713      -3.14464836       0.00000000
Si      -2.53674398       2.72689715       0.38207835       0.00000000
Si      -2.98400223      -2.25064271      -0.37668094       0.00000000
