10
Lattice="16.290000149 0.0 0.0 0.0 16.290000149 0.0 0.0 0.0 29.1751946751" Properties=species:S:1:pos:R:3:initial_magmoms:R:1 pbc="T T T"
Si      -1.35628912      -1.34957764      -1.35475016       0.00000000
Si      -1.34397388       1.33086043       1.38704711       0.00000000
Si       1.34061814       1.35321031      -1.38573422       0.00000000
Si       1.34542369      -1.38074041       1.35463346       0.00000000
Si       0.06882525      -2.70990668      -2.62500897       0.00000000
Si      -2.70676271       2.67048488       0.02275665       0.00000000
Si       2.70489914       2.68312592      -0.00644772       0.00000000
Si      -2.69602760      -0.06030558       2.71451846       0.00000000
Si       2.69539229      -0.03523527      -2.71580217       0.00000000
Si       2.69717768      -0.02801880       2.71609392       0.00000000
