10
Lattice="16.290000149 0.0 0.0 0.0 16.290000149 0.0 0.0 0.0 29.1751946751" Properties=species:S:1:pos:R:3:initial_magmoms:R:1 pbc="T T T"
Si      -1.36047565      -1.36241416       1.34389699       0.00000000
Si       1.35446464       1.35340579       1.36070190       0.00000000
Si       1.36932112      -1.37907883      -1.32256993       0.00000000
Si      -1.38364003       1.33806061      -1.35040306       0.00000000
Si      -0.01984122       2.69966027      -2.68003338       0.00000000
Si       2.71643897      -0.04064355       2.66602929       0.00000000
Si      -0.00402363      -2.70575273      -2.68639358       0.00000000
Si      -2.73623133       0.00146610       2.67603638       0.00000000
Si      -0.00977400      -2.73844677       2.68648110       0.00000000
Si       2.72951985       2.69594615       0.01846790       0.00000000
