10
Lattice="16.290000149 0.0 0.0 0.0 16.290000149 0.0 0.0 0.0 29.1751946751" Properties=species:S:1:pos:R:3:initial_magmoms:R:1 pbc="T T T"
H       -1.18162774      -0.53978544      -1.05074464       0.00000000
Si      -1.53844390       1.27187434       1.19708741       0.00000000
Si       1.13959954      -1.50170995       1.38299555       0.00000000
Si       1.66926401       0.78333724      -1.44781904       0.00000000
Si      -2.47744838      -1.08970327      -1.97128038       0.00000000
Si       3.08317575      -1.16623369      -1.45105748       0.00000000
Si      -0.14287959       2.59309109       2.56287164       0.00000000
Si       2.64593585      -0.11663640       2.55049552       0.00000000
Si       2.77628192       2.49069215      -0.19821627       0.00000000
Si       2.40239709      -2.92925154       0.05587050       0.00000000
