10
Lattice="16.290000149 0.0 0.0 0.0 16.290000149 0.0 0.0 0.0 29.1751946751" Properties=species:S:1:pos:R:3:initial_magmoms:R:1 pbc="T T T"
Si      -1.30885264      -1.28959786       1.47083826       0.00000000
Si      -1.34873056       1.36260964      -1.37684162       0.00000000
Si       1.43166295      -1.37202526      -1.28423664       0.00000000
Si       1.37191123       1.40608765       1.31267953       0.00000000
Si      -2.62096328      -2.64951965       0.12531330       0.00000000
Si       2.64802097       0.06276537      -2.72747225       0.00000000
Si       2.74652661      -2.63568944       0.18867890       0.00000000
Si      -2.71213841       2.70985781       0.01455550       0.00000000
Si       2.71143794       0.06963975       2.73462017       0.00000000
Si      -2.73761598      -0.01589904      -2.71871969       0.00000000
