10
Lattice="16.290000149 0.0 0.0 0.0 16.290000149 0.0 0.0 0.0 29.1751946751" Properties=species:S:1:pos:R:3:initial_magmoms:R:1 pbc="T T T"
Si       2.20385783      -0.38068101       0.80348486       0.00000000
Si       0.04987998       2.29428362       0.66606969       0.00000000
Si       0.14499729      -0.41516694      -2.35785171       0.00000000
Si      -1.52269147      -1.37439383       1.28049929       0.00000000
H       -2.16582068      -0.21577734      -1.44315100       0.00000000
H       -0.87856858       2.45250839      -1.87511894       0.00000000
Si       0.48757599       2.04566564       2.94927754       0.00000000
Si      -0.71969221       1.65988586      -3.15185463       0.00000000
Si       2.12059964       0.31038966       3.03333040       0.00000000
Si       2.44591094      -0.35544780      -2.81155516       0.00000000
