10
Lattice="16.290000149 0.0 0.0 0.0 16.290000149 0.0 0.0 0.0 29.1751946751" Properties=species:S:1:pos:R:3:initial_magmoms:R:1 pbc="T T T"
Si       1.77284072       1.00245403       1.15484173       0.00000000
Si       1.34010012      -1.30215745      -1.42354527       0.00000000
Si      -1.23396751       1.49045356      -1.36137293       0.00000000
Si      -1.29881800      -1.29815011       1.49730017       0.00000000
Si      -2.29309445       0.46964070       2.76566258       0.00000000
H       -3.16423479      -0.79060258      -1.58628451       0.00000000
Si      -2.50975145       0.02984328      -2.66317012       0.00000000
Si       3.42985953      -0.65075293       1.24875668       0.00000000
Si       2.75752236      -2.52698627      -0.04793484       0.00000000
Si       2.69052158       2.73655712      -0.12387788       0.00000000
