10
Lattice="16.290000149 0.0 0.0 0.0 16.290000149 0.0 0.0 0.0 29.1751946751" Properties=species:S:1:pos:R:3:initial_magmoms:R:1 pbc="T T T"
Si       1.81928351      -0.88801678       1.14888999       0.00000000
Si      -0.88070257       1.77639194       1.28426289       0.00000000
Si       1.11949768       1.44197452      -1.55080747       0.00000000
Si      -1.03197151      -2.14169519      -0.39441946       0.00000000
H       -1.93326464      -0.58386619      -1.88454252       0.00000000
Si       2.60949512       2.44402130      -0.08072776       0.00000000
Si      -0.06095718      -2.54526040      -2.54786975       0.00000000
Si      -1.96087619       0.61212934       2.99095343       0.00000000
Si       0.99777880       3.22550148       1.44656450       0.00000000
H        3.19624464      -0.62366266      -1.75739703       0.00000000
