10
Lattice="16.290000149 0.0 0.0 0.0 16.290000149 0.0 0.0 0.0 29.1751946751" Properties=species:S:1:pos:R:3:initial_magmoms:R:1 pbc="T T T"
Si       1.35982405      -1.35738218      -1.33978329       0.00000000
Si       1.37323072       1.34719930       1.34351771       0.00000000
Si      -1.34441371      -1.35527263       1.36574921       0.00000000
Si      -1.32993190       1.37000530      -1.37266373       0.00000000
Si       0.00201996       2.70428663       2.67597803       0.00000000
Si       2.70852203       0.01627371      -2.67714504       0.00000000
Si       0.04536765      -2.70392825       2.69893891       0.00000000
Si       0.00418653      -2.72912888      -2.67813700       0.00000000
Si      -2.68905548       2.72543105      -0.01843872       0.00000000
Si      -2.70111008      -2.71788878       0.01520028       0.00000000
