10
Lattice="16.290000149 0.0 0.0 0.0 16.290000149 0.0 0.0 0.0 29.1751946751" Properties=species:S:1:pos:R:3:initial_magmoms:R:1 pbc="T T T"
Si      -0.08325819       0.69107068       2.22984554       0.00000000
Si       0.72904267      -2.18922452      -0.40168408       0.00000000
Si       1.93932452       1.02734515      -0.90165939       0.00000000
Si      -2.20385783       0.38068101      -0.80348486       0.00000000
H        2.45192195      -0.25602993       1.49452852       0.00000000
Si       2.63037890      -1.64346554       0.88339572       0.00000000
Si      -2.15397785       2.67496463      -0.13741517       0.00000000
Si       1.46769643      -1.84602354      -2.66451218       0.00000000
Si       1.01087596       2.07112691      -2.73529120       0.00000000
Si       0.24205311       0.02523321      -3.61504002       0.00000000
