10
Lattice="16.290000149 0.0 0.0 0.0 16.290000149 0.0 0.0 0.0 29.1751946751" Properties=species:S:1:pos:R:3:initial_magmoms:R:1 pbc="T T T"
Si       1.38531790      -1.31445640      -1.35842624       0.00000000
Si       1.37031481       1.36158337       1.32767558       0.00000000
Si      -1.35581671       1.37024965      -1.33911226       0.00000000
Si      -1.35651718      -1.35532801       1.35763851       0.00000000
Si       0.00676035      -2.67840182      -2.66343270       0.00000000
Si      -0.00869886       2.70868493       2.64948695       0.00000000
Si       0.02425581       2.68799663      -2.70273168       0.00000000
Si       2.71472852      -2.68112225       0.01744677       0.00000000
Si      -2.73491184       0.01088172       2.66993877       0.00000000
Si      -2.73489555      -2.69117318       0.01336224       0.00000000
