10
Lattice="16.290000149 0.0 0.0 0.0 16.290000149 0.0 0.0 0.0 29.1751946751" Properties=species:S:1:pos:R:3:initial_magmoms:R:1 pbc="T T T"
Si       1.32152626       1.32577795      -1.36538365       0.00000000
Si      -1.25801155       1.40090743       1.36485937       0.00000000
Si      -1.72511102      -0.94025881      -1.27590654       0.00000000
Si       1.45014942      -1.38468259       1.22652227       0.00000000
Si      -3.43049484       0.72814672      -1.14863033       0.00000000
Si      -2.57287520       2.66457161      -0.10805617       0.00000000
Si      -2.59084307      -2.66820103       0.10682789       0.00000000
Si       2.58432382      -0.10176363      -2.69250870       0.00000000
Si      -2.66908394      -0.00342090       2.62271580       0.00000000
Si       2.81238870       0.01049076       2.54490555       0.00000000
