10
Lattice="16.290000149 0.0 0.0 0.0 16.290000149 0.0 0.0 0.0 29.1751946751" Properties=species:S:1:pos:R:3:initial_magmoms:R:1 pbc="T T T"
Si      -1.45792243      -1.29834559       1.30039678       0.00000000
Si       1.36969579      -1.38727270      -1.31107490       0.00000000
Si      -1.36331011       1.32621778      -1.37975331       0.00000000
Si       1.38264634       1.34993602       1.34106700       0.00000000
Si      -0.05773176       2.72135855       2.57150166       0.00000000
Si      -0.21817197      -2.68628618       2.67271041       0.00000000
Si       2.72417672       2.68121999      -0.03349312       0.00000000
Si       2.72342738      -0.04092048      -2.68575172       0.00000000
Si       0.00935046      -2.73440685      -2.67720339       0.00000000
Si      -0.00959481       2.67763619      -2.74150552       0.00000000
