10
Lattice="16.290000149 0.0 0.0 0.0 16.290000149 0.0 0.0 0.0 29.1751946751" Properties=species:S:1:pos:R:3:initial_magmoms:R:1 pbc="T T T"
Si       1.34550840       1.46209267      -1.23322877       0.00000000
Si       1.38579357      -1.33977106       1.37210357       0.00000000
Si      -1.35991853       1.45839484       1.28751009       0.00000000
Si      -1.22086546      -1.48981825      -1.39856839       0.00000000
Si      -2.67957145      -2.66866040       0.01859335       0.00000000
Si      -2.66318371       0.10450035       2.72161095       0.00000000
Si      -0.01200410       2.70366761      -2.69070859       0.00000000
Si       2.78992642       0.26748180      -2.58982076       0.00000000
Si       0.03996263      -2.66866040       2.75384954       0.00000000
Si       0.03061217       2.74525599       2.72248621       0.00000000
