10
Lattice="16.290000149 0.0 0.0 0.0 16.290000149 0.0 0.0 0.0 29.1751946751" Properties=species:S:1:pos:R:3:initial_magmoms:R:1 pbc="T T T"
H        1.97809472      -0.09238059      -1.05914709       0.00000000
Si       1.01836936      -1.33770223       1.61773537       0.00000000
Si       0.74987758       1.87800896      -1.28505062       0.00000000
Si      -0.77727736      -2.03973608      -1.01179575       0.00000000
Si      -1.07901703       1.11355183       1.85959773       0.00000000
H       -1.19755936       1.21383307      -2.34594823       0.00000000
H       -3.02826216       0.04127886      -1.27901136       0.00000000
H       -1.87128119       1.59510052      -2.41952807       0.00000000
H        2.31419000      -0.78778441       2.53827111       0.00000000
Si      -2.64311768       2.39013398       0.72345730       0.00000000
