10
Lattice="16.290000149 0.0 0.0 0.0 16.290000149 0.0 0.0 0.0 29.1751946751" Properties=species:S:1:pos:R:3:initial_magmoms:R:1 pbc="T T T"
Si      -0.45180315      -1.28573713       0.66122661       0.00000000
H        0.52874082      -1.54820161      -1.81408443       0.00000000
Si       1.55659096      -0.43621362      -2.03047685       0.00000000
Si       2.71689184      -0.59624659      -0.00983204       0.00000000
Si      -1.26895843      -0.30058308       2.60172716       0.00000000
Si      -2.33139224      -1.98902531      -0.61358352       0.00000000
Si       1.55831770      -2.65429262       0.58277451       0.00000000
Si      -2.77493637       1.00996372       1.29952152       0.00000000
Si      -1.84950146       2.84312631       0.13811537       0.00000000
Si       0.29699928       1.20511792      -3.18520188       0.00000000
