10
Lattice="16.290000149 0.0 0.0 0.0 16.290000149 0.0 0.0 0.0 29.1751946751" Properties=species:S:1:pos:R:3:initial_magmoms:R:1 pbc="T T T"
Si       1.35078310       1.38624643       1.32297838       0.00000000
Si      -1.33865357       1.35922132      -1.36324015       0.00000000
Si       1.38880396      -1.35068536      -1.33353980       0.00000000
Si      -1.35047033      -1.36529749       1.36417375       0.00000000
Si       2.66090636      -0.04056210       2.62039928       0.00000000
Si      -2.66584223       2.70827768       0.03267622       0.00000000
Si       0.04085532      -2.71252937      -2.68423461       0.00000000
Si      -2.69040755       0.00649971      -2.72470061       0.00000000
Si      -2.69262299      -2.72613152       0.00989039       0.00000000
Si       0.01993896       2.71111214      -2.72598431       0.00000000
