10
Lattice="16.2900001489832 0.0 0.0 0.0 16.2900001489832 0.0 0.0 0.0 29.4727966878115" Properties=species:S:1:pos:R:3:initial_magmoms:R:1 pbc="T T T"
Si       1.72894405       1.53904501       0.60817116       0.00000000
Si      -2.18091662       1.11589107       0.15968361       0.00000000
Si      -0.31711417      -1.38391696       2.02923152       0.00000000
Si       0.92445099      -0.89941978      -2.25608364       0.00000000
H       -1.12736086       1.15282050      -2.04685626       0.00000000
Si       3.63655194       0.16721685       0.54954977       0.00000000
Si      -2.16796607       1.67581259       2.50801711       0.00000000
Si       1.55973982       2.17495611       2.89172345       0.00000000
Si      -3.88747333      -0.54749061      -0.35399776       0.00000000
Si      -2.82031542      -2.79362100      -0.43613845       0.00000000
