10
Lattice="16.2900001489832 0.0 0.0 0.0 16.2900001489832 0.0 0.0 0.0 29.4727966878115" Properties=species:S:1:pos:R:3:initial_magmoms:R:1 pbc="T T T"
Si      -1.32141223      -1.34669431      -1.43854068       0.00000000
Si       1.32028822       1.30031668      -1.48793414       0.00000000
Si       1.38741931      -1.38533419       1.35309610       0.00000000
Si      -1.33568227       1.40465413       1.38952447       0.00000000
Si       2.68447799       2.63564057      -0.03250849       0.00000000
Si       2.65680128      -2.69998607      -0.16354455       0.00000000
Si      -2.68183901      -2.70017178      -0.03701783       0.00000000
Si      -0.14146236       2.54822843      -2.87912677       0.00000000
Si      -2.66936087       0.01055592       2.78149519       0.00000000
Si      -2.73411362       2.73075789      -0.01874470       0.00000000
