10
Lattice="16.2900001489832 0.0 0.0 0.0 16.2900001489832 0.0 0.0 0.0 29.4727966878115" Properties=species:S:1:pos:R:3:initial_magmoms:R:1 pbc="T T T"
Si      -1.20998863       1.59798385       1.25589481       0.00000000
Si      -1.49975515      -1.11311200      -1.47555557       0.00000000
Si       1.18910485       1.55738917      -1.37390389       0.00000000
Si       1.45670068      -1.25265214       1.58982160       0.00000000
Si       0.69025618       2.72935694       2.21417332       0.00000000
Si       1.75941776       0.70664392       3.09269845       0.00000000
Si      -2.50227434       0.25057278       2.68060980       0.00000000
Si      -2.85506688      -2.44565519      -0.14730504       0.00000000
Si       2.50002632       0.23374521      -2.81090904       0.00000000
Si      -0.18722097      -2.52422838      -2.80852174       0.00000000
