10
Lattice="16.2900001489832 0.0 0.0 0.0 16.2900001489832 0.0 0.0 0.0 29.4727966878115" Properties=species:S:1:pos:R:3:initial_magmoms:R:1 pbc="T T T"
Si      -1.15803982      -1.54940707       1.33903757       0.00000000
Si       1.34967538       1.39913182       1.34393006       0.00000000
Si      -1.42933348       1.39968568      -1.29777566       0.00000000
Si       1.40639716      -1.39305565      -1.34009859       0.00000000
H       -2.02342979      -0.72883090       2.26893378       0.00000000
Si       2.62446563       2.69511536      -0.18859643       0.00000000
Si      -2.72554508      -0.03934035      -2.69404940       0.00000000
Si      -0.05903496       2.65621484      -2.79319589       0.00000000
Si       0.41352165      -2.78427054       2.66192405       0.00000000
Si       0.01712079      -2.71440272      -2.76658195       0.00000000
