10
Lattice="16.2900001489832 0.0 0.0 0.0 16.2900001489832 0.0 0.0 0.0 29.4727966878115" Properties=species:S:1:pos:R:3:initial_magmoms:R:1 pbc="T T T"
Si      -2.27385596       0.62312509       0.03631049       0.00000000
Si      -0.03093471      -2.34512471      -0.42682504       0.00000000
Si       0.88713712       0.46718091       2.19852327       0.00000000
Si       1.18552105       1.64970461      -1.32822106       0.00000000
H       -0.04118112      -0.23504841      -2.83286627       0.00000000
H       -0.33226713      -0.95821039      -2.89036770       0.00000000
Si       0.75937465       3.43714116       0.40200895       0.00000000
Si       2.09935748      -2.55757889      -1.32854526       0.00000000
Si      -0.40019643      -2.96582259       1.97668153       0.00000000
Si      -0.05885577       2.66696624       2.45045673       0.00000000
