10
Lattice="16.2900001489832 0.0 0.0 0.0 16.2900001489832 0.0 0.0 0.0 29.4727966878115" Properties=species:S:1:pos:R:3:initial_magmoms:R:1 pbc="T T T"
Si      -1.30663720       1.36322866      -1.40054730       0.00000000
Si       1.29740077       1.44311482       1.33107992       0.00000000
Si      -1.37029852      -1.25652916       1.49542023       0.00000000
Si       1.37192752      -1.35790183      -1.42698440       0.00000000
Si       2.68350059       0.03890052       2.60459946       0.00000000
Si      -2.63643878      -0.05955624      -2.72193951       0.00000000
Si      -2.66651012      -2.69555519       0.09914649       0.00000000
Si      -2.65776239       2.72466542       0.00775135       0.00000000
Si       0.05903496      -2.65621484       2.79319589       0.00000000
Si       2.76231162      -2.72608265      -0.04615440       0.00000000
