10
Lattice="16.2900001489832 0.0 0.0 0.0 16.2900001489832 0.0 0.0 0.0 29.4727966878115" Properties=species:S:1:pos:R:3:initial_magmoms:R:1 pbc="T T T"
Si       1.38609982      -1.40421430       1.27351954       0.00000000
Si      -1.29740077      -1.44311482      -1.33107992       0.00000000
Si       1.42389262       1.33931494      -1.38377728       0.00000000
Si      -1.36151821       1.38955330       1.45451199       0.00000000
Si      -2.60403797      -0.07988616      -2.73162722       0.00000000
Si      -2.62277147       2.71624349       0.00660191       0.00000000
Si      -2.66769929      -2.69964398       0.16434031       0.00000000
Si       2.65694789      -0.12259854       2.75225817       0.00000000
Si       2.80422579       2.63726957       0.05163634       0.00000000
Si       0.04098564       2.63511929       2.85662135       0.00000000
