10
Lattice="16.2900001489832 0.0 0.0 0.0 16.2900001489832 0.0 0.0 0.0 29.4727966878115" Properties=species:S:1:pos:R:3:initial_magmoms:R:1 pbc="T T T"
Si      -0.88542667      -1.11793384      -0.55178970       0.00000000
H        2.16313283      -0.96896179      -1.26567978       0.00000000
Si      -0.41068719       2.82131400       0.59319898       0.00000000
Si       0.63853543       1.60907734       2.47530230       0.00000000
Si      -2.70456356       0.14509503      -1.44991423       0.00000000
Si      -1.05441913      -2.62936892       1.27416795       0.00000000
Si       2.59431284       1.39738879       1.13140172       0.00000000
Si       0.08369802      -1.88898842      -2.56018396       0.00000000
Si      -2.53620641       1.97196968       0.05393522       0.00000000
Si       0.40594680       2.93801556      -1.72109344       0.00000000
