10
Lattice="16.2900001489832 0.0 0.0 0.0 16.2900001489832 0.0 0.0 0.0 29.4727966878115" Properties=species:S:1:pos:R:3:initial_magmoms:R:1 pbc="T T T"
Si      -2.12551922      -0.84934432      -0.53926376       0.00000000
Si       0.43549686       2.19375803       0.90608219       0.00000000
Si       0.81663400       0.11670156      -2.31429241       0.00000000
Si       1.04922262      -1.21223665       1.88210332       0.00000000
H        0.41068719      -2.82131400      -0.59319898       0.00000000
H        1.25270101       2.96842899      -0.11806802       0.00000000
Si       3.00500004      -1.42392520       0.53820274       0.00000000
Si       3.04636035      -0.38556801      -1.66403410       0.00000000
Si      -2.63285498      -1.74908990       1.58993949       0.00000000
Si      -3.60245208       0.92576071      -0.92099542       0.00000000
