10
Lattice="16.2900001489832 0.0 0.0 0.0 16.2900001489832 0.0 0.0 0.0 29.4727966878115" Properties=species:S:1:pos:R:3:initial_magmoms:R:1 pbc="T T T"
Si       0.47666169       2.08329554      -0.88303446       0.00000000
Si      -2.26149185       0.22364541       0.67584070       0.00000000
Si       1.42099300      -0.07514577       1.92625357       0.00000000
Si      -0.26555958      -1.59607792      -1.78024534       0.00000000
H        3.25096275      -0.63500050      -0.68426992       0.00000000
Si      -2.27644607      -1.93060937       1.59736663       0.00000000
Si      -0.87928534       1.80991676      -2.75626647       0.00000000
Si      -1.32002758      -3.25207047      -0.27996210       0.00000000
Si       0.11541465       0.95291614       3.62813075       0.00000000
Si       2.62042571       2.00410985      -1.80232046       0.00000000
