10
Lattice="16.2900001489832 0.0 0.0 0.0 16.2900001489832 0.0 0.0 0.0 29.4727966878115" Properties=species:S:1:pos:R:3:initial_magmoms:R:1 pbc="T T T"
Si      -1.67785373       0.88324381       1.44449124       0.00000000
Si       1.20055672      -1.55097091       1.36226214       0.00000000
Si      -0.66099934      -1.25882605      -1.97181852       0.00000000
Si       0.79571764       2.29861676      -0.25181557       0.00000000
Si      -1.19413846       3.20873907      -1.01911036       0.00000000
Si      -0.26049339       2.19377432       2.92328881       0.00000000
Si      -3.06665769       2.14464368      -0.04591862       0.00000000
Si       2.59092452      -0.24524595       2.76337531       0.00000000
Si       1.67866823       3.00052029       1.78703292       0.00000000
Si       2.67235823      -2.84701962       0.08382063       0.00000000
