10
Lattice="16.2900001489832 0.0 0.0 0.0 16.2900001489832 0.0 0.0 0.0 29.4727966878115" Properties=species:S:1:pos:R:3:initial_magmoms:R:1 pbc="T T T"
H        0.57559087       0.35339526       2.15239834       0.00000000
Si      -0.65647072      -0.23832270      -2.20503676       0.00000000
Si       1.13907826       1.91067041      -0.70366302       0.00000000
Si      -1.89123644       0.14115285       1.52807609       0.00000000
Si       1.43477434      -1.98343784      -0.12593726       0.00000000
H        2.94355416      -1.25077879       0.16820125       0.00000000
Si       1.63157383      -0.34751457       2.99125308       0.00000000
Si      -2.11973627      -2.17256474      -1.68831969       0.00000000
Si       3.31457520      -0.20002491       1.36055271       0.00000000
Si      -1.63620020      -2.01740249       2.52027779       0.00000000
