10
Lattice="16.2900001489832 0.0 0.0 0.0 16.2900001489832 0.0 0.0 0.0 29.4727966878115" Properties=species:S:1:pos:R:3:initial_magmoms:R:1 pbc="T T T"
Si      -1.99273943      -0.19399761      -1.19075993       0.00000000
Si      -0.27196155      -1.51079977       1.77694439       0.00000000
Si       0.58228606       1.89008311       1.40340616       0.00000000
Si       1.73358182      -0.53494731      -1.63930642       0.00000000
H        2.44820783      -1.95551678       0.29664370       0.00000000
Si       2.85571848       1.31268568       1.37496491       0.00000000
Si       1.63100368      -2.73018773       1.32079391       0.00000000
H       -2.18971811       0.25743087       2.93575581       0.00000000
Si      -0.90595207      -0.11847717       3.62954544       0.00000000
H        2.96264604       0.10067220       2.29475195       0.00000000
