10
Lattice="16.2900001489832 0.0 0.0 0.0 16.2900001489832 0.0 0.0 0.0 29.4727966878115" Properties=species:S:1:pos:R:3:initial_magmoms:R:1 pbc="T T T"
Si      -0.81720415      -0.77467096       1.02415021       0.00000000
Si      -0.71462602       1.42056946      -1.93595012       0.00000000
Si       1.28816434       2.13267053      -0.84622294       0.00000000
H        0.51443820       2.05618898       1.99810825       0.00000000
Si       0.53874288      -0.50129217       2.89738222       0.00000000
Si       3.00550503       0.53579439      -0.08564795       0.00000000
Si      -2.72016938       0.44471700       1.48030069       0.00000000
Si      -2.44820783       1.95551678      -0.29664370       0.00000000
H        1.77572405      -0.48092967      -2.56410384       0.00000000
Si      -1.25270101      -2.96842899       0.11806802       0.00000000
