10
Lattice="16.2900001489832 0.0 0.0 0.0 16.2900001489832 0.0 0.0 0.0 29.4727966878115" Properties=species:S:1:pos:R:3:initial_magmoms:R:1 pbc="T T T"
H        0.81720415       0.77467096      -1.02415021       0.00000000
Si      -1.90296524       1.21938796       0.45615047       0.00000000
Si       1.35594703       0.27337878       1.87323201       0.00000000
Si      -0.43549686      -2.19375803      -0.90608219       0.00000000
H        1.33164235       2.83085994       0.97395804       0.00000000
Si       0.87928534      -1.80991676       2.75626647       0.00000000
Si      -1.63100368       2.73018773      -1.32079391       0.00000000
Si       0.61372576      -3.40599468       0.97602114       0.00000000
Si       3.49971105       0.19419309       0.95394601       0.00000000
Si       0.10257813       2.19524042      -2.96010034       0.00000000
