10
Lattice="16.2900001489832 0.0 0.0 0.0 16.2900001489832 0.0 0.0 0.0 29.4727966878115" Properties=species:S:1:pos:R:3:initial_magmoms:R:1 pbc="T T T"
Si      -1.03716802       1.95830237      -0.79382031       0.00000000
Si       1.31914792       0.29077650       1.94502774       0.00000000
Si       1.30557835      -1.02806191      -1.70187717       0.00000000
Si      -1.70093666      -1.71176951       0.11644702       0.00000000
Si       1.34944732      -2.08248104       1.79011873       0.00000000
Si       2.43006077       1.98123869       0.77864182       0.00000000
Si       1.53049438      -2.97201279      -0.42216834       0.00000000
Si      -3.01089702       0.84077578      -1.28415922       0.00000000
Si      -0.11541465      -0.95291614      -3.62813075       0.00000000
Si      -3.67899879      -0.44251785       0.59785568       0.00000000
