10
Lattice="16.2900001489832 0.0 0.0 0.0 16.2900001489832 0.0 0.0 0.0 29.4727966878115" Properties=species:S:1:pos:R:3:initial_magmoms:R:1 pbc="T T T"
Si      -1.30222261       1.25294536       1.55625798       0.00000000
Si       1.34926813      -1.31408173       1.50605402       0.00000000
Si       1.46663758       1.50765580      -1.19717911       0.00000000
Si      -1.35250984      -1.35648460      -1.56181655       0.00000000
Si      -2.76397320       2.50085711       0.16506535       0.00000000
Si      -2.66097152      -2.67859568       0.04887179       0.00000000
Si       2.68732874      -2.70217871       0.17396613       0.00000000
Si       2.93843910       0.21160710      -2.47562061       0.00000000
Si       0.17381430      -2.37250820      -3.14612673       0.00000000
Si       0.06196716       2.58826925       3.01168362       0.00000000
