10
Lattice="16.2900001489832 0.0 0.0 0.0 16.2900001489832 0.0 0.0 0.0 29.4727966878115" Properties=species:S:1:pos:R:3:initial_magmoms:R:1 pbc="T T T"
Si       1.19571859      -1.37103907       1.46155599       0.00000000
Si       1.39659058       1.32758451      -1.35421606       0.00000000
Si      -1.22782618       1.27824210       1.57428944       0.00000000
Si      -1.39828474      -1.42969349      -1.30375863       0.00000000
Si      -2.61970895       2.58031810       0.15090072       0.00000000
Si      -0.43574121      -2.23119408       2.95635729       0.00000000
Si      -2.27936198      -0.33339114       2.97804927       0.00000000
Si       2.70014897      -0.01453557       2.65116648       0.00000000
Si       2.72634329      -0.10928635      -2.66003779       0.00000000
Si       0.00177561       2.66619899      -2.74135324       0.00000000
