10
Lattice="16.2900001489832 0.0 0.0 0.0 16.2900001489832 0.0 0.0 0.0 29.4727966878115" Properties=species:S:1:pos:R:3:initial_magmoms:R:1 pbc="T T T"
Si       0.28709496       1.47310471       0.24029171       0.00000000
H       -1.02130156       0.69887359      -2.16580846       0.00000000
H       -0.24780348      -1.55451725       2.03651131       0.00000000
Si      -1.01273302      -0.78973921      -2.45243141       0.00000000
Si      -2.03416490      -1.96838588      -0.63581664       0.00000000
Si       0.06037074       1.34037379       2.57754343       0.00000000
Si       2.56847690       1.64113606      -0.51792546       0.00000000
Si       1.23624811      -1.54510651      -2.37869048       0.00000000
Si       0.79399090      -0.84852004       2.91371015       0.00000000
Si      -1.72543682       2.59814099      -0.54436255       0.00000000
