10
Lattice="16.2900001489832 0.0 0.0 0.0 16.2900001489832 0.0 0.0 0.0 29.4727966878115" Properties=species:S:1:pos:R:3:initial_magmoms:R:1 pbc="T T T"
Si       0.00856854      -1.48861279      -0.28662295       0.00000000
H        1.02130156      -0.69887359       2.16580846       0.00000000
Si      -0.70413526       1.89926741       1.62144591       0.00000000
Si      -1.82079848       1.76026484      -0.59537997       0.00000000
Si       1.30839652       0.77423113       2.40610018       0.00000000
Si       2.25754967      -2.24398010      -0.21288201       0.00000000
Si      -1.11718450      -1.78202665      -2.41284945       0.00000000
Si      -1.01286334      -2.66725946       1.52999182       0.00000000
Si      -0.43841277       1.90462682      -2.62033794       0.00000000
Si       3.68176809      -0.39633570      -0.35771133       0.00000000
