10
Lattice="16.2900001489832 0.0 0.0 0.0 16.2900001489832 0.0 0.0 0.0 29.4727966878115" Properties=species:S:1:pos:R:3:initial_magmoms:R:1 pbc="T T T"
Si      -1.13036311       1.71867647       1.11124233       0.00000000
Si       1.22199436       1.43228197      -1.42241611       0.00000000
Si      -1.45919305      -1.40224321      -1.27873623       0.00000000
Si       1.83624140      -0.84541843       1.33458718       0.00000000
Si      -1.95804173      -0.23027544       2.30934098       0.00000000
Si       2.48619611       2.63577089       0.20964000       0.00000000
Si       2.55218690       0.02484225      -2.75617805       0.00000000
Si       0.48843936       3.58469598       1.24030370       0.00000000
Si       2.72766278      -2.69330717       0.06699167       0.00000000
Si      -0.14827158      -2.72588717      -2.71574138       0.00000000
