10
Lattice="16.2900001489832 0.0 0.0 0.0 16.2900001489832 0.0 0.0 0.0 29.4727966878115" Properties=species:S:1:pos:R:3:initial_magmoms:R:1 pbc="T T T"
Si       1.15934302      -0.98870527       0.01514902       0.00000000
H       -1.38101734      -1.22926948       1.22845564       0.00000000
H        2.04571451       1.27957951      -0.30386453       0.00000000
Si      -2.30955875       1.37199268      -0.33637303       0.00000000
Si      -2.33017375      -0.11463273       1.54481664       0.00000000
H       -1.12501999      -2.73412991      -0.85960359       0.00000000
H        2.33680052       2.00274149      -0.24636311       0.00000000
Si       1.64698418      -1.10147768      -2.39195323       0.00000000
Si       0.15874605      -3.11003796      -0.16581395       0.00000000
Si       2.34704693      -0.10733481       2.15967812       0.00000000
