10
Lattice="16.2900001489832 0.0 0.0 0.0 16.2900001489832 0.0 0.0 0.0 29.4727966878115" Properties=species:S:1:pos:R:3:initial_magmoms:R:1 pbc="T T T"
Si      -0.48575151      -0.76101994       2.20144108       0.00000000
Si       0.89142139      -1.84788875      -1.26759551       0.00000000
Si      -1.83624140       0.84541843      -1.33458718       0.00000000
Si       1.74835685       1.69780898       0.13875793       0.00000000
Si       1.39773088      -2.20850048       2.29153942       0.00000000
Si       2.13262166      -0.47876310      -2.72328641       0.00000000
Si      -2.72512154      -1.40757004       1.85327893       0.00000000
Si      -0.61424704       2.27770040      -2.75700329       0.00000000
Si       3.48493602       0.63649918      -1.09441336       0.00000000
Si       0.64995472       3.48118932      -1.12494718       0.00000000
