10
Lattice="16.2900001489832 0.0 0.0 0.0 16.2900001489832 0.0 0.0 0.0 29.4727966878115" Properties=species:S:1:pos:R:3:initial_magmoms:R:1 pbc="T T T"
Si      -1.98985610       0.91012231      -0.76729479       0.00000000
Si       1.57853359       0.89298523      -1.44540490       0.00000000
Si       0.88295059       0.70190353       2.03884850       0.00000000
Si      -0.79571764      -2.29861676       0.25181557       0.00000000
Si       0.57151837      -0.58448521      -3.03675908       0.00000000
Si      -2.47357136      -1.41537295       1.69630681       0.00000000
Si      -1.05621103      -0.10484244       3.17510439       0.00000000
Si       2.80937343      -0.74844406       1.68012625       0.00000000
Si      -1.80880904       0.02059056      -2.97958185       0.00000000
Si       3.65656746      -0.02026476      -0.74961111       0.00000000
