10
Lattice="16.2900001489832 0.0 0.0 0.0 16.2900001489832 0.0 0.0 0.0 29.4727966878115" Properties=species:S:1:pos:R:3:initial_magmoms:R:1 pbc="T T T"
Si      -0.84245365      -2.02543346      -0.93890015       0.00000000
Si       1.39175245       1.38926008      -1.35559539       0.00000000
Si       1.35177679      -1.23962014       1.53247048       0.00000000
Si      -1.45521829       1.43187472       1.24979689       0.00000000
Si       2.59807583       2.62870103       0.27001208       0.00000000
Si       2.70539435      -2.61816140       0.18111034       0.00000000
Si       1.08396919      -3.47578104      -1.29762240       0.00000000
Si      -2.71410950       0.08638587       2.79081449       0.00000000
Si      -0.09280413       2.69970914       2.81442220       0.00000000
Si       0.00741195      -2.63896373       2.90419633       0.00000000
