10
Lattice="16.2900001489832 0.0 0.0 0.0 16.2900001489832 0.0 0.0 0.0 29.4727966878115" Properties=species:S:1:pos:R:3:initial_magmoms:R:1 pbc="T T T"
Si       0.37102104       1.05075388       1.19235146       0.00000000
Si      -1.50877981      -0.73265905      -0.29413851       0.00000000
H        1.89255593      -0.17811486      -1.60081495       0.00000000
Si      -0.90375292      -1.66265516      -2.39581417       0.00000000
Si       0.35748405       3.11767797       0.11288081       0.00000000
Si       2.41711022       0.31832289       1.98183927       0.00000000
Si      -2.94355416       1.25077879      -0.16820125       0.00000000
Si      -1.31198032       0.90326422       2.82305183       0.00000000
Si      -1.60653610      -2.58585833       1.16656277       0.00000000
H       -2.36796329       1.60417405       1.98419709       0.00000000
