10
Lattice="16.2900001489832 0.0 0.0 0.0 16.2900001489832 0.0 0.0 0.0 29.4727966878115" Properties=species:S:1:pos:R:3:initial_magmoms:R:1 pbc="T T T"
H        0.94915641      -1.11463674      -0.31636100       0.00000000
Si       0.97214160       1.23308785       1.68923334       0.00000000
Si       0.02061500       1.48662541      -1.88118967       0.00000000
Si      -1.90403712      -0.83536750       1.30078188       0.00000000
H       -0.83511044      -1.29661559      -1.92825772       0.00000000
H        2.33017375       0.11463273      -1.54481664       0.00000000
H       -1.30743215      -1.84290401      -2.22286780       0.00000000
Si       1.94335141      -0.55931716       2.88977824       0.00000000
Si      -1.01277863       2.26846397       2.54238239       0.00000000
Si      -3.00776608       1.23518926       1.68195356       0.00000000
