10
Lattice="16.2900001489832 0.0 0.0 0.0 16.2900001489832 0.0 0.0 0.0 29.4727966878115" Properties=species:S:1:pos:R:3:initial_magmoms:R:1 pbc="T T T"
Si       0.16175970       1.80063146       1.48595946       0.00000000
Si       0.41648643      -2.02331576       1.10608459       0.00000000
Si       0.33572061       0.07394031      -2.32039328       0.00000000
Si      -2.37524492       0.13038516       0.40348259       0.00000000
H       -1.48524076       2.64070676      -0.47572041       0.00000000
H        1.02983752      -2.65997783      -1.28212560       0.00000000
Si      -1.91529677      -0.60325129      -2.68650436       0.00000000
Si      -0.70996708       0.65153485       3.35733469       0.00000000
H        0.78208291      -2.82424620      -2.01434776       0.00000000
Si      -1.50957802      -3.23674158       0.41138130       0.00000000
