10
Lattice="16.2900001489832 0.0 0.0 0.0 16.2900001489832 0.0 0.0 0.0 29.4727966878115" Properties=species:S:1:pos:R:3:initial_magmoms:R:1 pbc="T T T"
Si      -0.10340892       0.36885447      -1.47254934       0.00000000
Si       0.44504280       1.19477377       2.34789140       0.00000000
Si       1.64700047      -0.84007531       1.96167987       0.00000000
Si      -0.89000416      -2.51032160       0.87920300       0.00000000
Si      -0.63053704       2.63911034      -1.11805054       0.00000000
Si       1.99555760      -0.28134459      -2.30085282       0.00000000
Si       1.48524076      -2.64070676       0.47572041       0.00000000
Si      -1.56074491      -1.17276598      -2.43987600       0.00000000
Si       0.64218439       2.97067701       0.80873354       0.00000000
Si      -1.82996975       0.55985473       2.61052349       0.00000000
