10
Lattice="16.2900001489832 0.0 0.0 0.0 16.2900001489832 0.0 0.0 0.0 29.4727966878115" Properties=species:S:1:pos:R:3:initial_magmoms:R:1 pbc="T T T"
Si       0.17459622       2.28542186      -0.45617995       0.00000000
Si      -0.33572061      -0.07394031       2.32039328       0.00000000
Si      -2.25101738      -0.67719160      -0.36611108       0.00000000
Si       1.89247448      -0.91383643      -1.20526055       0.00000000
H        0.44636229      -2.89818651       0.30604552       0.00000000
H        0.69411691      -2.73391814       1.03826768       0.00000000
Si      -1.92437030       2.93562093       0.37212353       0.00000000
Si       0.71535907       2.02088855      -2.81338475       0.00000000
H       -1.82096138       2.56676645       1.84467287       0.00000000
Si      -3.38170629       1.39400047      -0.59520313       0.00000000
