10
Lattice="16.2900001489832 0.0 0.0 0.0 16.2900001489832 0.0 0.0 0.0 29.4727966878115" Properties=species:S:1:pos:R:3:initial_magmoms:R:1 pbc="T T T"
Si       0.19714158       1.77590324      -1.53915786       0.00000000
Si      -2.27501255      -0.63491905       0.26263209       0.00000000
Si       1.20195766      -2.03484908      -0.38621153       0.00000000
Si       1.36436896       0.42204132       1.94903604       0.00000000
H       -0.44504280      -1.19477377      -2.34789140       0.00000000
H        2.92172556       1.20221830      -0.61206157       0.00000000
Si       2.41627943       1.45036387      -2.01593929       0.00000000
Si       0.33023088      -3.18394569       1.48516370       0.00000000
Si      -2.05009652      -2.57886992       1.54234092       0.00000000
Si       1.33724611      -1.70647526       3.07651788       0.00000000
