10
Lattice="16.2900001489832 0.0 0.0 0.0 16.2900001489832 0.0 0.0 0.0 29.4727966878115" Properties=species:S:1:pos:R:3:initial_magmoms:R:1 pbc="T T T"
Si       1.45521829      -1.43187472      -1.24979689       0.00000000
Si      -1.25889121      -1.34548885       1.54101759       0.00000000
Si       1.36241416       1.26783442       1.56462530       0.00000000
Si      -1.34832331       1.38471517      -1.53663794       0.00000000
Si      -2.63999000       2.68431509      -0.00058356       0.00000000
Si      -2.64153755      -2.73194705       0.18895894       0.00000000
Si       2.69977430       2.68778486       0.22642771       0.00000000
Si       2.84697075      -0.04261464      -2.60539228       0.00000000
Si       2.80699509      -2.67149486       0.28267359       0.00000000
Si      -2.64503990      -0.00612504       2.93811658       0.00000000
