10
Lattice="16.2900001489832 0.0 0.0 0.0 16.2900001489832 0.0 0.0 0.0 29.4727966878115" Properties=species:S:1:pos:R:3:initial_magmoms:R:1 pbc="T T T"
Si       1.35862837      -0.42295356      -1.85103900       0.00000000
Si      -0.66681487       2.30835818       0.00618929       0.00000000
Si       1.32006994      -0.49272363       1.96811113       0.00000000
Si      -1.91846354      -1.24690503      -1.10322573       0.00000000
Si       0.38741856       1.36945144      -3.05158390       0.00000000
Si      -0.41507409      -1.30756247       3.32693939       0.00000000
Si      -1.59750167       2.40482756      -2.19843485       0.00000000
Si       0.85704297      -2.70335810      -2.45249036       0.00000000
Si      -1.90427495      -2.64443717       2.03308568       0.00000000
Si      -3.52623769      -1.62896906       0.60929113       0.00000000
