10
Lattice="16.2900001489832 0.0 0.0 0.0 16.2900001489832 0.0 0.0 0.0 29.4727966878115" Properties=species:S:1:pos:R:3:initial_magmoms:R:1 pbc="T T T"
Si      -1.27084807      -1.28161576      -1.47873863       0.00000000
Si       0.86493385      -1.81465715       1.26102308       0.00000000
Si      -1.83133811       0.86045410       1.28359924       0.00000000
Si       1.46958607       1.49848453      -1.15831038       0.00000000
Si       0.25990695      -0.88466104       3.36269874       0.00000000
Si      -2.54563832      -2.57759930       0.05378785       0.00000000
Si      -2.61596225       2.75771784       0.10436317       0.00000000
Si       2.87350716       0.08505009      -2.51273275       0.00000000
Si      -2.65694789       0.12259854      -2.75225817       0.00000000
Si      -1.17486739       1.09877680       3.48863600       0.00000000
