10
Lattice="16.2900001489832 0.0 0.0 0.0 16.2900001489832 0.0 0.0 0.0 29.4727966878115" Properties=species:S:1:pos:R:3:initial_magmoms:R:1 pbc="T T T"
Si      -2.29408814      -0.23534163      -0.03421792       0.00000000
Si       0.22081095      -2.18768186      -0.82833295       0.00000000
Si       0.83965177       0.74518606       2.09065283       0.00000000
Si       0.37308987       1.62572572      -1.69969619       0.00000000
H        0.23019399       3.01097684      -1.08288950       0.00000000
Si       2.49525335      -2.38449764      -1.38083000       0.00000000
Si      -1.04661622       1.84060060       3.10725801       0.00000000
Si      -3.32703705       1.83510761      -0.21851131       0.00000000
Si      -1.09960759       1.38276037      -3.51575097       0.00000000
Si       1.73231120      -1.09258660       3.36670704       0.00000000
