10
Lattice="16.2900001489832 0.0 0.0 0.0 16.2900001489832 0.0 0.0 0.0 29.4727966878115" Properties=species:S:1:pos:R:3:initial_magmoms:R:1 pbc="T T T"
Si       1.11091285       1.69046219      -1.16638593       0.00000000
Si      -1.31914792      -0.29077650      -1.94502774       0.00000000
Si       0.03029940      -2.37325754      -0.15490902       0.00000000
Si      -0.77051701       1.02382651       2.03379981       0.00000000
Si      -2.72538218       2.09800541       1.00555288       0.00000000
Si      -0.01356957      -1.31883841      -3.64690492       0.00000000
Si       2.02015550      -3.28337985       0.61238577       0.00000000
Si      -2.35631594       1.66752587      -2.73884805       0.00000000
Si      -1.73537372      -0.56567026       3.53886059       0.00000000
Si      -1.84221983      -3.43735293       0.81828273       0.00000000
