10
Lattice="16.2900001489832 0.0 0.0 0.0 16.2900001489832 0.0 0.0 0.0 29.4727966878115" Properties=species:S:1:pos:R:3:initial_magmoms:R:1 pbc="T T T"
Si      -1.32975271       1.43687087       1.30582173       0.00000000
Si       1.39527109       1.36755692      -1.35171087       0.00000000
Si      -1.46251621      -1.31933200      -1.34176381       0.00000000
Si       1.28412442      -1.32962728       1.51501964       0.00000000
Si       2.66729367      -0.15353488      -2.65040903       0.00000000
Si      -0.10899639      -2.81029055      -2.54797632       0.00000000
Si       2.64801283      -2.71356053       0.19888243       0.00000000
Si      -2.72634329       0.10928635       2.66003779       0.00000000
Si       0.00762372       2.66344272      -2.76739835       0.00000000
Si       2.74748609       2.72161431       0.08046073       0.00000000
