10
Lattice="16.2900001489832 0.0 0.0 0.0 16.2900001489832 0.0 0.0 0.0 29.4727966878115" Properties=species:S:1:pos:R:3:initial_magmoms:R:1 pbc="T T T"
Si      -1.33390666      -1.39497787       1.32452517       0.00000000
Si       1.30406664      -1.40247127      -1.35941506       0.00000000
Si       1.36873468       1.31463559       1.41350354       0.00000000
Si      -1.35643573       1.39404934      -1.35579580       0.00000000
Si       2.77017969       2.59597442      -0.01823482       0.00000000
Si      -2.65499309      -0.01203831       2.71558222       0.00000000
Si       0.07229502       2.76667734      -2.60826116       0.00000000
Si      -2.67079439      -2.71282259      -0.14979549       0.00000000
Si       0.08777052      -2.67092471       2.73412061       0.00000000
Si      -0.13859532      -2.62629011      -2.78385239       0.00000000
