10
Lattice="16.2900001489832 0.0 0.0 0.0 16.2900001489832 0.0 0.0 0.0 29.4727966878115" Properties=species:S:1:pos:R:3:initial_magmoms:R:1 pbc="T T T"
Si       0.43398189       2.17336295      -0.81297762       0.00000000
Si       1.50840514      -0.82982890       1.66376885       0.00000000
Si      -2.28138194      -0.16803135       0.75821717       0.00000000
Si       0.09198963      -1.33859818      -2.00559434       0.00000000
H       -0.31043853       1.86326651       2.28585117       0.00000000
H       -2.56847690      -1.64113606       0.51792546       0.00000000
Si       0.17736552      -2.85021246       2.14685746       0.00000000
H       -0.06268392       2.02753487       3.01807333       0.00000000
Si       1.46144107       1.91163152      -2.92773920       0.00000000
Si       0.09466119       0.16143390      -3.82996046       0.00000000
