10
Lattice="16.2900001489832 0.0 0.0 0.0 16.2900001489832 0.0 0.0 0.0 29.4727966878115" Properties=species:S:1:pos:R:3:initial_magmoms:R:1 pbc="T T T"
Si      -1.40853115      -1.35048988       1.34956231       0.00000000
Si       1.32366025      -1.46253250      -1.33652060       0.00000000
Si      -1.32123304       1.45383364      -1.34966841       0.00000000
Si       1.33688773       1.31784472       1.47432066       0.00000000
H        1.50291541       1.09167436      -3.13914463       0.00000000
Si       2.53219907       0.08653248      -2.63405690       0.00000000
Si      -2.72894970       2.62625753       0.17846368       0.00000000
Si       2.67079439       2.71282259       0.14979549       0.00000000
Si      -0.01371618      -2.68910435       2.73669948       0.00000000
Si      -2.71160084       0.14810868      -2.75078159       0.00000000
