10
Lattice="16.2900001489832 0.0 0.0 0.0 16.2900001489832 0.0 0.0 0.0 29.4727966878115" Properties=species:S:1:pos:R:3:initial_magmoms:R:1 pbc="T T T"
Si      -1.02745918       0.26173143       2.11476158       0.00000000
Si       2.08942058      -1.02429892      -0.50760998       0.00000000
Si      -1.36677988      -1.75019762      -0.90222125       0.00000000
Si      -0.41741496       2.29161206      -0.69576431       0.00000000
Si      -2.97859395       1.07582419       1.02612489       0.00000000
Si      -3.25026228      -0.30271707      -0.99231959       0.00000000
Si       1.59394393      -0.87071680      -2.94716178       0.00000000
Si       1.56375856       3.08338752       0.56396196       0.00000000
Si      -1.36945144      -3.25022970       0.92214486       0.00000000
H        3.22587126       1.57705120      -1.14675705       0.00000000
