10
Lattice="16.2900001489832 0.0 0.0 0.0 16.2900001489832 0.0 0.0 0.0 29.4727966878115" Properties=species:S:1:pos:R:3:initial_magmoms:R:1 pbc="T T T"
Si       1.27310912       1.28273977      -1.48867096       0.00000000
Si      -1.30406664       1.40247127       1.35941506       0.00000000
Si      -1.44266196      -1.22381884      -1.42443733       0.00000000
Si       1.41738965      -1.40602249       1.28860667       0.00000000
H       -2.47194562      -0.21867696      -1.92952505       0.00000000
Si       1.48126275      -0.27046287      -3.29234717       0.00000000
Si      -2.63797330       0.00749340       2.68394023       0.00000000
Si      -2.65120078      -2.77288383      -0.12690102       0.00000000
Si       2.74748446       2.67768506      -0.20971368       0.00000000
Si       0.08866158      -2.71471223       2.72095806       0.00000000
