10
Lattice="16.2900001489832 0.0 0.0 0.0 16.2900001489832 0.0 0.0 0.0 29.4727966878115" Properties=species:S:1:pos:R:3:initial_magmoms:R:1 pbc="T T T"
Si       1.34291503      -1.39137778      -1.38731401       0.00000000
Si       1.76151917       1.06795612       1.21828752       0.00000000
Si      -1.39404934      -1.40928049       1.37670381       0.00000000
Si      -1.38323278       1.43935183      -1.36638833       0.00000000
H       -0.59549725       1.02418489       3.20236672       0.00000000
Si      -2.65825109      -2.61276941      -0.25535231       0.00000000
Si       0.59898331       1.97446205       3.12063866       0.00000000
Si       2.75028960      -2.63788859       0.14441670       0.00000000
Si       2.64500732       0.01019754      -2.82720750       0.00000000
Si       2.71257824       2.80766298      -0.09829178       0.00000000
