10
Lattice="16.2900001489832 0.0 0.0 0.0 16.2900001489832 0.0 0.0 0.0 29.4727966878115" Properties=species:S:1:pos:R:3:initial_magmoms:R:1 pbc="T T T"
H       -1.19448055      -0.95027716       0.08172807       0.00000000
Si       1.12795219      -0.47524446       2.03736602       0.00000000
Si       1.16253586      -0.90650593      -1.90235113       0.00000000
Si      -1.06715791       2.24613038       0.08214068       0.00000000
H       -3.08703648      -0.77216230       1.68254302       0.00000000
Si      -0.59898331      -1.97446205      -3.12063866       0.00000000
Si      -0.66992626      -0.45383940       3.66438229       0.00000000
Si       2.50320124       1.40970403       2.46536997       0.00000000
Si       2.11359494       0.83320093      -3.21893044       0.00000000
Si      -2.71601543       0.27859158       2.87489448       0.00000000
