10
Lattice="16.2900001489832 0.0 0.0 0.0 16.2900001489832 0.0 0.0 0.0 29.4727966878115" Properties=species:S:1:pos:R:3:initial_magmoms:R:1 pbc="T T T"
Si      -2.04771818       1.00061326      -0.41677482       0.00000000
Si       1.01892322      -0.78670927      -1.94697295       0.00000000
Si      -0.87060277      -1.93411172       1.19134939       0.00000000
Si       1.42913800       1.74265535       0.92771522       0.00000000
H        2.15789071      -1.04343967       1.19462087       0.00000000
Si       2.26842976       0.02252907       2.31163986       0.00000000
Si      -2.58848102       1.26514657       1.94042999       0.00000000
Si       2.75893144      -2.12610566      -0.77522297       0.00000000
Si      -1.33628500       2.99929854      -1.42132562       0.00000000
Si      -2.98903584      -0.56782054      -2.03577449       0.00000000
