10
Lattice="16.2900001489832 0.0 0.0 0.0 16.2900001489832 0.0 0.0 0.0 29.4727966878115" Properties=species:S:1:pos:R:3:initial_magmoms:R:1 pbc="T T T"
Si      -1.37093383      -1.41299461       1.26653449       0.00000000
Si      -1.42167718       1.27594684      -1.40959545       0.00000000
Si       1.30495770      -1.44625879      -1.37257761       0.00000000
Si       1.32392741       1.30552948       1.54021888       0.00000000
Si       2.65233782       2.63090018       0.06873056       0.00000000
Si      -2.67144599      -0.07656300       2.68494231       0.00000000
Si       0.02309922      -2.74479987       2.64332672       0.00000000
Si      -2.74276362       2.65888640      -0.01853839       0.00000000
Si      -0.08777052       2.67092471      -2.73412061       0.00000000
Si       2.63368577      -0.13756905      -2.80492901       0.00000000
