10
Lattice="16.2900001489832 0.0 0.0 0.0 16.2900001489832 0.0 0.0 0.0 29.4727966878115" Properties=species:S:1:pos:R:3:initial_magmoms:R:1 pbc="T T T"
Si      -1.00059697       1.00330437      -0.55833266       0.00000000
Si      -1.05355576      -0.03692943       2.20653987       0.00000000
Si       1.12736086      -1.15282050       2.04685626       0.00000000
Si       2.05181186      -2.05224028      -0.20922738       0.00000000
Si       0.49122495       2.33162682      -1.77317187       0.00000000
Si      -2.50502735      -0.35319913      -1.74794315       0.00000000
Si      -1.79893730       2.50788462       1.18221282       0.00000000
Si       0.42064038      -3.11324057      -1.60821262       0.00000000
Si       3.12552975      -0.42237690      -1.62619103       0.00000000
Si      -1.05034663      -1.77840538      -2.95002064       0.00000000
