10
Lattice="16.2900001489832 0.0 0.0 0.0 16.2900001489832 0.0 0.0 0.0 29.4727966878115" Properties=species:S:1:pos:R:3:initial_magmoms:R:1 pbc="T T T"
Si      -1.40952484       0.17521524       0.61129528       0.00000000
H        0.66583747       1.60042735       0.32658806       0.00000000
Si       1.36076399      -1.13178034      -0.72700548       0.00000000
H        1.13815918       2.14671577       0.62119814       0.00000000
Si       1.57607218      -1.56067975       1.91676333       0.00000000
Si      -2.40547916       1.50286654      -1.07555077       0.00000000
Si       1.43305086       0.57436912      -2.66186511       0.00000000
Si      -0.24752655      -2.58282839      -1.75315984       0.00000000
Si      -2.29928465      -1.96356404       0.93402240       0.00000000
Si      -1.09608895       0.68957200       2.98135022       0.00000000
