10
Lattice="16.2900001489832 0.0 0.0 0.0 16.2900001489832 0.0 0.0 0.0 29.4727966878115" Properties=species:S:1:pos:R:3:initial_magmoms:R:1 pbc="T T T"
H        1.40952484      -0.17521524      -0.61129528       0.00000000
Si      -0.88975981      -2.13877928       0.32272712       0.00000000
Si      -0.99595432       1.32765130      -1.68684605       0.00000000
Si       0.31343589       0.51435675       2.37005495       0.00000000
H        2.07536231       1.42521211      -0.28470722       0.00000000
H       -0.38431368      -2.38692485       1.72660485       0.00000000
H        2.54768402       1.97150053       0.00990286       0.00000000
Si       2.77028883      -1.30699558      -1.33830075       0.00000000
Si      -2.94780585       1.68820765      -0.40206789       0.00000000
Si      -3.26208882       0.40334040       1.60028444       0.00000000
