10
Lattice="16.2900001489832 0.0 0.0 0.0 16.2900001489832 0.0 0.0 0.0 29.4727966878115" Properties=species:S:1:pos:R:3:initial_magmoms:R:1 pbc="T T T"
Si       1.32841042       1.32537070      -1.47148832       0.00000000
Si       1.34427688      -1.48527334       1.31542986       0.00000000
Si      -1.32392741      -1.30552948      -1.54021888       0.00000000
Si      -1.33370141       1.34925184       1.51077556       0.00000000
Si      -2.74107597       2.59576265      -0.02095516       0.00000000
Si       2.62462202       2.76439674      -0.07521458       0.00000000
Si      -2.69486124      -2.71852409      -0.27368439       0.00000000
Si      -2.64305904      -0.26683020       2.77359648       0.00000000
Si       2.89591568      -0.18469602       2.56159865       0.00000000
Si       2.73739769      -2.74378989      -0.15205016       0.00000000
