10
Lattice="16.2900001489832 0.0 0.0 0.0 16.2900001489832 0.0 0.0 0.0 29.4727966878115" Properties=species:S:1:pos:R:3:initial_magmoms:R:1 pbc="T T T"
Si      -1.19939036       0.75012193       1.90622448       0.00000000
Si      -0.93068680       0.09646938      -2.20462414       0.00000000
Si       0.66681487      -2.30835818      -0.00618929       0.00000000
Si       1.72453435       1.70347790       0.03831464       0.00000000
H       -2.22867402       1.75526381       1.40113675       0.00000000
Si       1.05423342      -0.93890674      -3.05777318       0.00000000
H        3.12508340       1.04555737       0.83092656       0.00000000
H       -0.17198982       2.91198414      -1.82206724       0.00000000
Si      -1.01993972       2.31389678      -2.92234568       0.00000000
Si       2.02544323      -2.73131174      -1.85722828       0.00000000
