10
Lattice="16.2900001489832 0.0 0.0 0.0 16.2900001489832 0.0 0.0 0.0 29.4727966878115" Properties=species:S:1:pos:R:3:initial_magmoms:R:1 pbc="T T T"
Si      -1.32572094       1.45518571      -1.25156526       0.00000000
Si       1.32980158       1.42278490       1.32139221       0.00000000
Si      -1.40144500      -1.28133883       1.43173836       0.00000000
Si       1.28137141      -1.32076063      -1.55089393       0.00000000
Si      -2.69788466       0.17070291      -2.59002634       0.00000000
Si       2.65300571      -2.66753639      -0.13436059       0.00000000
Si       2.63643878       0.05955624       2.72193951       0.00000000
Si      -2.77017969      -2.59597442       0.01823482       0.00000000
Si       2.65232153       2.76421755      -0.12237400       0.00000000
Si      -0.03007134      -2.63599895       2.82108600       0.00000000
