10
Lattice="16.2900001489832 0.0 0.0 0.0 16.2900001489832 0.0 0.0 0.0 29.4727966878115" Properties=species:S:1:pos:R:3:initial_magmoms:R:1 pbc="T T T"
Si       0.11053905       1.06596874       1.11701899       0.00000000
Si       0.60104073      -1.08266599      -1.96984384       0.00000000
Si       0.41076213      -2.37881243       0.09746654       0.00000000
H        1.73607093      -1.82775431       0.62329070       0.00000000
Si      -2.15789071       1.04343967      -1.19462087       0.00000000
Si      -1.47566550      -1.80183692       1.50031272       0.00000000
Si      -0.72875270       2.78609502      -0.26690565       0.00000000
Si       2.34947088       1.09200016       1.65852269       0.00000000
Si      -0.93920322       0.05271444       2.96281183       0.00000000
Si      -3.02849348      -0.89067205      -0.00327148       0.00000000
