10
Lattice="16.2900001489832 0.0 0.0 0.0 16.2900001489832 0.0 0.0 0.0 29.4727966878115" Properties=species:S:1:pos:R:3:initial_magmoms:R:1 pbc="T T T"
Si      -1.45560111       1.35744571      -1.23149134       0.00000000
Si      -1.42176189      -1.29143863       1.35062038       0.00000000
Si       1.33239169       1.43469289       1.32993048       0.00000000
Si       1.35112519      -1.36143676      -1.40829864       0.00000000
Si      -0.11611512       2.68670972      -2.58861636       0.00000000
Si       2.59364495       0.10800270       2.77784056       0.00000000
Si      -2.75222811      -0.01684386      -2.62716678       0.00000000
Si       2.65776239      -2.72466542      -0.00775135       0.00000000
Si      -0.14535567      -2.54150066       2.84963629       0.00000000
Si       2.75338470       2.71743266      -0.05652882       0.00000000
