10
Lattice="16.28999089631971 0.0 0.0 0.0 16.28999089631971 0.0 0.0 0.0 34.2284985734139" Properties=species:S:1:pos:R:3:initial_magmoms:R:1 pbc="T T T"
Si      -1.31641119       1.30105596      -1.44178731       0.00000000
Si       1.34384355       1.35723528       1.36387294       0.00000000
Si      -1.37375199      -1.35436947       1.36089506       0.00000000
Si       1.27739664      -1.46607000      -1.38779183       0.00000000
Si      -2.16606501      -0.54625515      -2.65671246       0.00000000
Si      -0.61753761      -2.39575659      -2.55292886       0.00000000
Si       2.68871337       2.70911306      -0.00698946       0.00000000
Si       2.69653257       0.00331121       2.72141018       0.00000000
Si      -0.01736514      -2.71236903       2.72082829       0.00000000
Si       2.69418681      -2.74103943      -0.00647604       0.00000000
