10
Lattice="16.28999089631971 0.0 0.0 0.0 16.28999089631971 0.0 0.0 0.0 34.2284985734139" Properties=species:S:1:pos:R:3:initial_magmoms:R:1 pbc="T T T"
Si      -1.34693865      -1.35829278       1.38653564       0.00000000
Si       1.36482507       1.35672894       1.38882895       0.00000000
Si       1.42418583      -1.41877592      -1.41292925       0.00000000
Si      -1.38495951       1.42843752      -1.46512432       0.00000000
Si       0.16594623       2.84591187      -2.53055162       0.00000000
Si      -2.70967860      -2.72141416      -0.00598314       0.00000000
Si      -2.71803537       2.71538010       0.02103342       0.00000000
Si       2.74344777       2.69679321       0.03268481       0.00000000
Si      -2.70743058      -0.00021177       2.74944676       0.00000000
Si       2.74059702      -2.71983188       0.02885806       0.00000000
