10
Lattice="16.28999089631971 0.0 0.0 0.0 16.28999089631971 0.0 0.0 0.0 34.2284985734139" Properties=species:S:1:pos:R:3:initial_magmoms:R:1 pbc="T T T"
Si       1.41913593      -1.27736243      -1.34538612       0.00000000
Si      -1.33569855       1.43470917      -1.33080477       0.00000000
Si       1.01214657       1.69481160       1.33689744       0.00000000
Si      -0.83269593      -1.97265710       1.14446472       0.00000000
Si      -2.64878658       2.64396474       0.34101872       0.00000000
Si       0.04412961      -2.63129831      -2.70484015       0.00000000
Si      -2.67242337       0.08684199      -2.71151472       0.00000000
Si       2.64644082      -2.76191153       0.08201153       0.00000000
Si      -2.70993924      -2.71755386      -0.00325171       0.00000000
Si       2.69151525       2.74172103       0.01574512       0.00000000
