10
Lattice="16.28999089631971 0.0 0.0 0.0 16.28999089631971 0.0 0.0 0.0 34.2284985734139" Properties=species:S:1:pos:R:3:initial_magmoms:R:1 pbc="T T T"
Si      -1.16991522       1.50633630      -1.31131505       0.00000000
Si       1.33946154       1.37368683       1.36028579       0.00000000
Si      -1.37862270      -1.34006427       1.35614414       0.00000000
Si       1.26941454      -1.47649302      -1.44992343       0.00000000
Si      -2.57750154       0.14911866      -2.56323643       0.00000000
Si       2.68586262      -2.70751203      -0.01081621       0.00000000
Si       2.69467551       0.01832625       2.71713846       0.00000000
Si       2.67545331       2.73766482      -0.02035228       0.00000000
Si      -0.01832625      -2.69760771       2.71659080       0.00000000
Si      -2.74344777      -2.69679321      -0.03268481       0.00000000
