10
Lattice="16.28999089631971 0.0 0.0 0.0 16.28999089631971 0.0 0.0 0.0 34.2284985734139" Properties=species:S:1:pos:R:3:initial_magmoms:R:1 pbc="T T T"
Si      -1.35985662       1.35404109      -1.36044666       0.00000000
Si       1.35711990      -1.36295172      -1.36096009       0.00000000
Si       1.35946566       1.36585134       1.36284266       0.00000000
Si      -1.37831319      -1.36726857       1.37526761       0.00000000
Si      -0.12131163       2.58150888       2.75337619       0.00000000
Si       2.64890061      -0.06025671       2.72181750       0.00000000
Si       2.71238274       2.71415835      -0.00112954       0.00000000
Si      -2.71503801      -2.71513575      -0.00544233       0.00000000
Si      -0.00030951       2.71296918      -2.71736779       0.00000000
Si      -2.71480995       2.71681362      -0.00174565       0.00000000
