10
Lattice="16.28999089631971 0.0 0.0 0.0 16.28999089631971 0.0 0.0 0.0 34.2284985734139" Properties=species:S:1:pos:R:3:initial_magmoms:R:1 pbc="T T T"
Si       1.28321217      -1.42930089       1.35913571       0.00000000
Si      -1.43272179       1.29142233       1.36255172       0.00000000
Si      -1.29652110      -1.47401694      -1.33682180       0.00000000
Si       1.59106059       1.06719048      -1.51954907       0.00000000
Si       0.49694274      -2.36670894      -2.54729454       0.00000000
Si       2.61604368       2.54539395       0.07746598       0.00000000
Si       0.14643081       2.19525669      -2.94540643       0.00000000
Si      -2.63393824       2.68832241      -0.09515870       0.00000000
Si       2.62804941      -0.07845264       2.72011292       0.00000000
Si      -0.08488719       2.63984337       2.72569217       0.00000000
