10
Lattice="16.28999089631971 0.0 0.0 0.0 16.28999089631971 0.0 0.0 0.0 34.2284985734139" Properties=species:S:1:pos:R:3:initial_magmoms:R:1 pbc="T T T"
Si       1.34483724       1.35084825       1.36097721       0.00000000
Si      -1.28321217       1.42930089      -1.35913571       0.00000000
Si      -1.36757808      -1.36288656       1.36022418       0.00000000
Si       1.55395197      -1.22932485      -1.30870684       0.00000000
Si       0.14636565      -2.58654249      -2.56062822       0.00000000
Si      -2.57973327      -0.04471605      -2.69595751       0.00000000
Si       0.30784842       2.49649137      -2.87868478       0.00000000
Si       2.70339066      -0.00438201       2.71978090       0.00000000
Si       2.74286133       2.68633503      -0.00473723       0.00000000
Si      -0.01073511       2.71384884       2.71991782       0.00000000
