10
Lattice="16.28999089631971 0.0 0.0 0.0 16.28999089631971 0.0 0.0 0.0 34.2284985734139" Properties=species:S:1:pos:R:3:initial_magmoms:R:1 pbc="T T T"
Si      -1.35685926      -1.35650088      -1.35777684       0.00000000
Si       1.35674523      -1.35738054       1.35757147       0.00000000
Si      -1.35785295       1.35734796       1.35736610       0.00000000
Si       1.35723393       1.35972630      -1.35674998       0.00000000
Si      -0.00013032       2.71502172      -2.71011135       0.00000000
Si       2.71280628      -0.00327429      -2.71569059       0.00000000
Si       2.71389771       2.71487511       0.00061611       0.00000000
Si      -0.00195480       2.71472850       2.71415031       0.00000000
Si       2.71432125      -2.71498914      -0.00013691       0.00000000
Si       2.71427238      -0.00042354       2.71534831       0.00000000
