10
Lattice="16.28999089631971 0.0 0.0 0.0 16.28999089631971 0.0 0.0 0.0 34.2284985734139" Properties=species:S:1:pos:R:3:initial_magmoms:R:1 pbc="T T T"
Si       1.30668606      -1.28096415       1.48618512       0.00000000
Si       1.88014293       0.89865414      -1.17662686       0.00000000
Si      -1.13285547      -1.49040468      -1.55270966       0.00000000
Si      -1.40406768       1.44332701       1.44524439       0.00000000
Si      -2.59195891      -2.57517207       0.02700972       0.00000000
Si       3.42867033      -0.95084730      -1.07284326       0.00000000
Si       2.65802301      -2.71810053       0.19963441       0.00000000
Si       2.72979675       2.74596525       0.03829829       0.00000000
Si      -0.04290786      -2.62365111       2.84786059       0.00000000
Si       2.67245595       0.09053982       2.84098066       0.00000000
