10
Lattice="16.28999089631971 0.0 0.0 0.0 16.28999089631971 0.0 0.0 0.0 34.2284985734139" Properties=species:S:1:pos:R:3:initial_magmoms:R:1 pbc="T T T"
Si       1.58221512       0.88223938       1.44687367       0.00000000
Si       1.46598597      -1.23514038      -1.41514384       0.00000000
Si      -1.22730489       1.48454910      -1.42739765       0.00000000
Si      -1.84231755      -1.05826356       1.23345886       0.00000000
Si      -3.47913675       0.78925443       1.06245319       0.00000000
Si       0.41115960       1.49370408       3.43671432       0.00000000
Si       0.11104893      -2.58224193      -2.79006916       0.00000000
Si       2.69809641       2.68062443       0.06318584       0.00000000
Si      -2.60231121       0.13061322      -2.78685168       0.00000000
Si      -2.64644082       2.76191153      -0.08201153       0.00000000
