10
Lattice="16.28999089631971 0.0 0.0 0.0 16.28999089631971 0.0 0.0 0.0 34.2284985734139" Properties=species:S:1:pos:R:3:initial_magmoms:R:1 pbc="T T T"
Si      -1.05663456       1.13731893       1.74034898       0.00000000
Si      -0.21260079      -2.28692052      -0.40666902       0.00000000
Si       2.16417537       0.49868577       0.76220063       0.00000000
Si      -0.80593146       1.36902789      -2.05367683       0.00000000
Si       1.78860942      -1.09191870      -1.79723678       0.00000000
Si      -0.03865617       3.19186260       1.12450949       0.00000000
Si      -2.42665614      -2.29047174      -1.20323508       0.00000000
Si      -0.10332747       3.41754314      -1.21107341       0.00000000
Si      -3.30307443       0.65228418       1.52696840       0.00000000
Si       2.24191125       2.80696248       0.87871451       0.00000000
