10
Lattice="16.28999089631971 0.0 0.0 0.0 16.28999089631971 0.0 0.0 0.0 34.2284985734139" Properties=species:S:1:pos:R:3:initial_magmoms:R:1 pbc="T T T"
Si      -1.68684579       1.61818344      -0.33044211       0.00000000
Si       0.82798812      -0.44417943      -2.20647294       0.00000000
Si      -1.27539297      -0.56441592       1.96043835       0.00000000
Si       1.85109786       0.24975828       1.61407998       0.00000000
Si      -2.14009875      -2.31765975       0.63511015       0.00000000
Si      -2.74149297       0.45455616      -2.05723660       0.00000000
Si       2.90121642       1.89868095       0.34981545       0.00000000
Si      -1.07351100      -0.08390979      -3.49144572       0.00000000
Si      -0.48821130      -3.60973368      -0.68063407       0.00000000
Si       0.16923681      -1.69248213       3.38629571       0.00000000
