10
Lattice="16.28999089631971 0.0 0.0 0.0 16.28999089631971 0.0 0.0 0.0 34.2284985734139" Properties=species:S:1:pos:R:3:initial_magmoms:R:1 pbc="T T T"
Si      -1.14344397      -1.90807865      -0.50743777       0.00000000
Si       1.65293001       0.15858315       1.64177085       0.00000000
Si      -1.77969879       1.21298598       0.90366710       0.00000000
Si       0.93548583       0.76716126      -2.01260261       0.00000000
Si       2.29671081       2.26567836       0.89206363       0.00000000
Si      -1.73713302       3.08012949      -0.50182430       0.00000000
Si      -1.14600150       1.46539953       3.15877876       0.00000000
Si      -2.02342977      -2.70013266       1.47942499       0.00000000
Si       3.13528743      -0.05097141      -1.94654157       0.00000000
Si       0.36219186       3.05771445      -2.05121238       0.00000000
