10
Lattice="16.28999089631971 0.0 0.0 0.0 16.28999089631971 0.0 0.0 0.0 34.2284985734139" Properties=species:S:1:pos:R:3:initial_magmoms:R:1 pbc="T T T"
Si      -1.89925110       1.41171095       0.09043174       0.00000000
Si      -0.36193122      -2.18364585       0.86286670       0.00000000
Si       1.57095873       0.75941048       1.62609419       0.00000000
Si       0.57122514      -0.63417947      -2.26582519       0.00000000
Si       2.73857706       2.21806595       0.22368336       0.00000000
Si      -2.01769569      -1.57821171       2.58945582       0.00000000
Si      -3.69699921      -0.04747232      -0.47916502       0.00000000
Si       2.86761015      -1.00757641      -2.20239974       0.00000000
Si      -1.05303447      -2.26936383      -2.81242039       0.00000000
Si      -1.72766853       2.87914673      -1.76632843       0.00000000
