10
Lattice="16.28999089631971 0.0 0.0 0.0 16.28999089631971 0.0 0.0 0.0 34.2284985734139" Properties=species:S:1:pos:R:3:initial_magmoms:R:1 pbc="T T T"
Si       1.35508365      -1.35746199       1.36198695       0.00000000
Si      -1.36019871       1.35992178       1.36256883       0.00000000
Si       1.36273995       1.35933534      -1.36701854       0.00000000
Si      -1.36901160      -1.36591650      -1.36538584       0.00000000
Si      -0.05030352       2.69478954      -2.72464135       0.00000000
Si       2.71132389      -2.71442062       0.00184834       0.00000000
Si       2.71150308       2.71718829       0.00284097       0.00000000
Si      -2.71541268       2.71528236       0.00571616       0.00000000
Si      -2.71388142      -2.71779428       0.00547656       0.00000000
Si       2.71280628       0.00128691       2.71911345       0.00000000
