10
Lattice="16.28999089631971 0.0 0.0 0.0 16.28999089631971 0.0 0.0 0.0 34.2284985734139" Properties=species:S:1:pos:R:3:initial_magmoms:R:1 pbc="T T T"
Si      -1.34988714      -1.33635015      -1.37225550       0.00000000
Si      -1.41881013       1.32028821       1.35431976       0.00000000
Si       1.36562328       1.37795481      -1.36797694       0.00000000
Si       1.23421185      -1.50271992       1.48377201       0.00000000
Si       2.01225483       0.49228380       2.78859734       0.00000000
Si       0.30903759       2.37607569       2.61423727       0.00000000
Si      -2.69118945      -2.69879525      -0.00681148       0.00000000
Si       0.00265527      -2.69346353      -2.72835515       0.00000000
Si       2.73370635      -2.70201578       0.02457608       0.00000000
Si      -2.71059084       0.01759320      -2.72845783       0.00000000
