10
Lattice="16.28999089631971 0.0 0.0 0.0 16.28999089631971 0.0 0.0 0.0 34.2284985734139" Properties=species:S:1:pos:R:3:initial_magmoms:R:1 pbc="T T T"
Si       1.84593393       0.94157829      -1.32844300       0.00000000
Si      -0.77804298      -1.99500372      -1.30482532       0.00000000
Si      -1.70321724       1.88379189      -0.17436007       0.00000000
Si       2.36740941       0.89767674       1.65864551       0.00000000
Si      -1.24028802      -0.04043178       3.15087197       0.00000000
Si      -2.01225483      -0.49228380      -2.78859734       0.00000000
Si       0.70284834       2.24898111      -2.83463469       0.00000000
Si       2.45270385       2.79492417       0.08112159       0.00000000
Si      -3.43106496       0.82800441      -1.43427758       0.00000000
Si       1.07585676       0.43298820       3.70763304       0.00000000
