10
Lattice="16.28999089631971 0.0 0.0 0.0 16.28999089631971 0.0 0.0 0.0 34.2284985734139" Properties=species:S:1:pos:R:3:initial_magmoms:R:1 pbc="T T T"
Si      -1.27902564      -1.53523476      -1.36635249       0.00000000
Si       1.88366157       0.80039286      -1.35498862       0.00000000
Si       1.28317959      -1.34254035       1.65101255       0.00000000
Si      -1.37327958       1.34179101       1.66401939       0.00000000
Si      -2.56218894      -2.57386887       0.36004978       0.00000000
Si       2.65790898       2.67173919       0.19884031       0.00000000
Si       2.61229698      -2.72701116       0.30129310       0.00000000
Si      -2.78330940       2.63015082       0.38708688       0.00000000
Si       3.71620512      -0.97753032      -0.98032597       0.00000000
Si       2.66036877       0.00871515       3.02768011       0.00000000
