10
Lattice="16.28999089631971 0.0 0.0 0.0 16.28999089631971 0.0 0.0 0.0 34.2284985734139" Properties=species:S:1:pos:R:3:initial_magmoms:R:1 pbc="T T T"
Si       1.35567009       1.35850455      -1.35736610       0.00000000
Si       1.35757602      -1.35710361       1.35712650       0.00000000
Si      -1.35843939      -1.35791811      -1.35674998       0.00000000
Si      -1.35824391       1.35829278       1.35750301       0.00000000
Si       2.71174743      -0.00213399       2.71384225       0.00000000
Si       0.00470781       2.71456560      -2.71339728       0.00000000
Si      -0.00164529       2.71379997       2.71527985       0.00000000
Si       0.00149868      -2.71551042      -2.71363688       0.00000000
Si       2.71489140      -2.71459818       0.00037651       0.00000000
Si      -0.00081450      -2.71510317       2.71476642       0.00000000
