10
Lattice="16.28999089631971 0.0 0.0 0.0 16.28999089631971 0.0 0.0 0.0 34.2284985734139" Properties=species:S:1:pos:R:3:initial_magmoms:R:1 pbc="T T T"
Si      -1.35291708      -1.34830701       1.36397220       0.00000000
Si      -1.35516510       1.35576783      -1.35846141       0.00000000
Si       1.35954711      -1.35949824      -1.35918021       0.00000000
Si       1.34403903       1.36951659       1.36588900       0.00000000
Si       2.69345376      -0.04681746       2.63289181       0.00000000
Si      -2.71041165       2.71500543       0.00136914       0.00000000
Si      -2.71238274      -2.71415835       0.00112954       0.00000000
Si      -2.71269225      -0.00118917      -2.71623825       0.00000000
Si       0.00211770       2.71389771      -2.71644362       0.00000000
Si       2.71849149       2.71492398      -0.00352554       0.00000000
