10
Lattice="16.28999089631971 0.0 0.0 0.0 16.28999089631971 0.0 0.0 0.0 34.2284985734139" Properties=species:S:1:pos:R:3:initial_magmoms:R:1 pbc="T T T"
Si       1.34941473      -1.41633405       1.26700281       0.00000000
Si      -1.34403903      -1.36951659      -1.36588900       0.00000000
Si       1.37445246       1.34540739      -1.36941454       0.00000000
Si      -1.46877156       1.31040018       1.43766620       0.00000000
Si       2.71881729       2.68275123      -0.00215640       0.00000000
Si      -2.70593190       2.70760977      -0.00759873       0.00000000
Si      -2.69695611      -2.71782360      -0.00191680       0.00000000
Si      -2.69920413      -0.01374876      -2.72435041       0.00000000
Si       0.01467729       2.69988831      -2.72455578       0.00000000
Si       2.72639214      -2.72295495      -0.04329907       0.00000000
