10
Lattice="16.28999089631971 0.0 0.0 0.0 16.28999089631971 0.0 0.0 0.0 34.2284985734139" Properties=species:S:1:pos:R:3:initial_magmoms:R:1 pbc="T T T"
Si      -0.72930330       1.84523346       1.28747146       0.00000000
Si       2.18233872       0.83163708      -0.41662952       0.00000000
Si       0.00878031      -1.59446520       1.76947745       0.00000000
Si      -0.99926118      -0.80585001      -2.06452727       0.00000000
Si      -1.96237485       3.09935169      -0.18343063       0.00000000
Si       2.08264392       1.90791738      -2.56344215       0.00000000
Si      -0.06498081      -2.98597329      -2.39753652       0.00000000
Si       2.20571487      -1.80380799       2.58798399       0.00000000
Si       2.88512190       1.89227898       1.71344537       0.00000000
Si      -2.15746389       1.17806022       3.04127225       0.00000000
