10
Lattice="16.28999089631971 0.0 0.0 0.0 16.28999089631971 0.0 0.0 0.0 34.2284985734139" Properties=species:S:1:pos:R:3:initial_magmoms:R:1 pbc="T T T"
Si       0.93305862       2.20064868       0.35036311       0.00000000
Si      -1.82581578      -0.38257065      -1.61195781       0.00000000
Si       0.15525999      -0.86900634       2.31244443       0.00000000
Si       1.35306369      -0.89124219      -2.03608338       0.00000000
Si      -0.62711613      -1.71387090      -3.17137485       0.00000000
Si      -2.11445829       1.80128304      -2.44429268       0.00000000
Si      -0.04890258      -3.87565164      -0.16306466       0.00000000
Si       1.82529450       0.90518643      -3.48258053       0.00000000
Si       0.03479544       2.48598432      -3.18883139       0.00000000
Si       0.92950740       1.00233999       3.86627336       0.00000000
