10
Lattice="16.28999089631971 0.0 0.0 0.0 16.28999089631971 0.0 0.0 0.0 34.2284985734139" Properties=species:S:1:pos:R:3:initial_magmoms:R:1 pbc="T T T"
Si       1.41679017      -1.27496943       1.38131579       0.00000000
Si      -1.27739664       1.46607000       1.38779183       0.00000000
Si       1.71778050       1.01374299      -1.34211528       0.00000000
Si      -1.89493425      -0.92968659      -1.16513703       0.00000000
Si       3.41435142      -0.74147193      -1.36604101       0.00000000
Si      -3.44346165       0.91981485      -1.26892064       0.00000000
Si       0.68255100       0.93480165      -3.60427801       0.00000000
Si       0.06812478      -2.60353296       2.75214397       0.00000000
Si      -2.59380783       2.76712596      -0.05399549       0.00000000
Si      -2.66558157      -2.69693982       0.10734063       0.00000000
