10
Lattice="16.28999089631971 0.0 0.0 0.0 16.28999089631971 0.0 0.0 0.0 34.2284985734139" Properties=species:S:1:pos:R:3:initial_magmoms:R:1 pbc="T T T"
Si      -1.35772263      -1.35633798       1.35767415       0.00000000
Si       1.35785295       1.35874890       1.35753724       0.00000000
Si      -1.35638685       1.35799956      -1.35993324       0.00000000
Si       1.36288656      -1.35723393      -1.35647616       0.00000000
Si      -2.71438641      -2.71148679       0.00030806       0.00000000
Si       2.71384884      -2.71329498      -0.00044497       0.00000000
Si      -0.00006516      -2.71350675       2.71442414       0.00000000
Si      -2.71445157       0.00076563       2.71421877       0.00000000
Si       2.71389771       2.71568024       0.00058188       0.00000000
Si       0.00063531       2.71577099       2.71415031       0.00000000
