10
Lattice="16.28999089631971 0.0 0.0 0.0 16.28999089631971 0.0 0.0 0.0 34.2284985734139" Properties=species:S:1:pos:R:3:initial_magmoms:R:1 pbc="T T T"
Si      -1.35493704      -1.34710155      -1.37492533       0.00000000
Si       1.36174626       1.36556148      -1.36965414       0.00000000
Si      -1.46598597       1.23514038       1.41514384       0.00000000
Si       1.19426877      -1.53582120       1.41699218       0.00000000
Si       0.11622915       2.11737976       2.86201751       0.00000000
Si      -2.69329086       2.71968948      -0.01225381       0.00000000
Si      -2.71932228      -2.69967654      -0.01577935       0.00000000
Si      -0.83324979      -2.37527748       2.89402117       0.00000000
Si       2.70542691      -2.72453508      -0.01033701       0.00000000
Si       0.00128691      -2.70739800      -2.73273640       0.00000000
