10
Lattice="16.28999089631971 0.0 0.0 0.0 16.28999089631971 0.0 0.0 0.0 34.2284985734139" Properties=species:S:1:pos:R:3:initial_magmoms:R:1 pbc="T T T"
Si       1.35555270      -1.35509886      -1.36085741       0.00000000
Si      -1.35745299      -1.35718398       1.35726341       0.00000000
Si       1.35771112       1.35762012       1.35719496       0.00000000
Si      -1.35847926       1.35660525      -1.36054935       0.00000000
Si      -2.71471950       2.71356388      -0.00041074       0.00000000
Si       0.00104733       2.71441096       2.71428723       0.00000000
Si      -2.71419822      -2.71477629      -0.00112954       0.00000000
Si      -2.71436112      -0.00037800       2.71469797       0.00000000
Si       0.00037940      -2.71493919       2.71452682       0.00000000
Si       2.71513564      -0.00028887       2.71452682       0.00000000
