10
Lattice="16.28999089631971 0.0 0.0 0.0 16.28999089631971 0.0 0.0 0.0 34.2284985734139" Properties=species:S:1:pos:R:3:initial_magmoms:R:1 pbc="T T T"
Si       1.38103362       1.75429846      -0.72615800       0.00000000
Si      -0.18769338      -1.87769943      -1.43064935       0.00000000
Si      -2.11686921       1.11071640       0.07691148       0.00000000
Si       0.83160450      -1.21929021       1.90252370       0.00000000
Si      -3.36800637      -0.27170091       1.38680262       0.00000000
Si       0.50925798      -3.49638786       1.24475427       0.00000000
Si       1.41872868       3.35486753       0.98793771       0.00000000
Si       3.55907178       0.95924058      -1.26587327       0.00000000
Si       3.15265257      -0.79895934       2.20253666       0.00000000
Si      -1.71424557      -3.58197552       0.06818321       0.00000000
