10
Lattice="16.28999089631971 0.0 0.0 0.0 16.28999089631971 0.0 0.0 0.0 34.2284985734139" Properties=species:S:1:pos:R:3:initial_magmoms:R:1 pbc="T T T"
Si      -2.28353220       0.41127363      -0.39253264       0.00000000
Si       1.27250964       1.95059948       0.43634514       0.00000000
Si      -0.27437247      -1.52000361       1.81972492       0.00000000
Si       1.09872792      -0.63127008      -2.03379006       0.00000000
Si       1.57885938      -2.92400613       1.58532803       0.00000000
Si      -3.26863737      -1.71693342      -0.31154797       0.00000000
Si      -2.03556582      -2.97105165       1.15935412       0.00000000
Si       3.41977599      -0.21093921      -1.73377711       0.00000000
Si      -0.72604530      -0.32783625       3.86179828       0.00000000
Si       0.26712342       0.58802013      -3.93631376       0.00000000
