10
Lattice="16.28999089631971 0.0 0.0 0.0 16.28999089631971 0.0 0.0 0.0 34.2284985734139" Properties=species:S:1:pos:R:3:initial_magmoms:R:1 pbc="T T T"
Si      -1.51047396       0.82379249      -1.65145752       0.00000000
Si       2.26466838      -0.70903854      -0.41016033       0.00000000
Si      -0.93775014      -2.26719333       0.27160329       0.00000000
Si      -0.37929636       1.51285297       1.92309504       0.00000000
Si      -3.21426135      -1.52772507      -0.18678502       0.00000000
Si       0.34912728      -2.80909647       2.20452191       0.00000000
Si       2.49838101      -2.12439519       1.45998319       0.00000000
Si      -3.03352380       2.13354270      -0.44962581       0.00000000
Si      -1.78494417       3.25051379       1.16986228       0.00000000
Si      -3.13015608      -0.74663586      -2.36139121       0.00000000
