10
Lattice="16.28999089631971 0.0 0.0 0.0 16.28999089631971 0.0 0.0 0.0 34.2284985734139" Properties=species:S:1:pos:R:3:initial_magmoms:R:1 pbc="T T T"
Si       0.36193122       2.18364585      -0.86286670       0.00000000
Si      -0.45739062      -1.50107463      -1.80514357       0.00000000
Si      -1.65576447       0.60543414       1.72658912       0.00000000
Si       0.44087256      -1.78641027       1.73405094       0.00000000
Si       2.70886410      -1.28539503       1.30218973       0.00000000
Si      -3.29690052      -0.91334772       0.80471245       0.00000000
Si      -2.60664435      -2.18577591      -1.06060485       0.00000000
Si       1.93288995       2.94305633       0.76322749       0.00000000
Si       0.93315636       1.54946637      -3.12869189       0.00000000
Si      -0.69110325      -0.08571798      -3.67528709       0.00000000
