10
Lattice="16.28999089631971 0.0 0.0 0.0 16.28999089631971 0.0 0.0 0.0 34.2284985734139" Properties=species:S:1:pos:R:3:initial_magmoms:R:1 pbc="T T T"
Si      -1.71778050      -1.01374299       1.34211528       0.00000000
Si       1.00530477       1.76453021       1.29479778       0.00000000
Si       1.69657092      -1.75521492      -0.02392573       0.00000000
Si      -1.03522950      -0.07894134      -2.26216273       0.00000000
Si       1.06140753      -2.47078575      -2.25470092       0.00000000
Si      -0.30099033      -2.28871242       2.72343107       0.00000000
Si       2.40573978       0.45582678       2.73166645       0.00000000
Si      -2.35131489       1.94105354      -2.39483247       0.00000000
Si       2.76131790       2.85178346       0.20932830       0.00000000
Si       3.63978873      -0.93491568       1.30348497       0.00000000
