10
Lattice="16.28999089631971 0.0 0.0 0.0 16.28999089631971 0.0 0.0 0.0 34.2284985734139" Properties=species:S:1:pos:R:3:initial_magmoms:R:1 pbc="T T T"
Si       1.34387613       1.36457420      -1.38892479       0.00000000
Si      -1.36985868      -1.35090746      -1.38878788       0.00000000
Si      -1.49949450       1.19929586       1.45919594       0.00000000
Si       1.41112125      -1.48388609       1.53723696       0.00000000
Si       2.68661196       2.72368148       0.00575039       0.00000000
Si       2.70720252      -2.71137017      -0.02269351       0.00000000
Si      -2.73370635       2.70201578      -0.02457608       0.00000000
Si      -2.73160494      -2.71646894      -0.01913374       0.00000000
Si       2.70137070       0.00719366      -2.75252048       0.00000000
Si      -0.01528002      -2.70878006      -2.75248625       0.00000000
