10
Lattice="16.28999089631971 0.0 0.0 0.0 16.28999089631971 0.0 0.0 0.0 34.2284985734139" Properties=species:S:1:pos:R:3:initial_magmoms:R:1 pbc="T T T"
Si      -2.13949602       0.13973562      -0.93741641       0.00000000
Si      -0.38265210      -1.87328810       1.40686053       0.00000000
Si       0.21489768       2.25347715       0.72800634       0.00000000
Si       2.05246085      -0.49624227      -1.15445945       0.00000000
Si       1.46290131       2.78500356      -1.17831672       0.00000000
Si      -3.16781856       0.05100399       1.20549416       0.00000000
Si       1.33299671      -1.62904561       2.97976361       0.00000000
Si      -2.17719108      -1.46083344      -2.65151212       0.00000000
Si       3.35864681       1.45497393      -0.88490987       0.00000000
Si      -2.25150606       1.57887567       2.72835515       0.00000000
