10
Lattice="16.28999089631971 0.0 0.0 0.0 16.28999089631971 0.0 0.0 0.0 34.2284985734139" Properties=species:S:1:pos:R:3:initial_magmoms:R:1 pbc="T T T"
Si       1.16761833       1.45865547      -1.40241083       0.00000000
Si      -1.57095873      -0.75941048      -1.62609419       0.00000000
Si      -1.11654918       1.52901198       1.65067027       0.00000000
Si       1.42654788      -1.85574770       0.96647643       0.00000000
Si       0.20789298       0.59310261       3.43485267       0.00000000
Si      -1.93288995      -2.94305633      -0.76322749       0.00000000
Si      -3.47020983       0.65230047      -1.53566245       0.00000000
Si       3.34217110       1.81024254      -0.62282211       0.00000000
Si       0.13488120       3.59264547      -1.46439867       0.00000000
Si       1.88869518      -1.24755010       3.25533666       0.00000000
