10
Lattice="16.28999089631971 0.0 0.0 0.0 16.28999089631971 0.0 0.0 0.0 34.2284985734139" Properties=species:S:1:pos:R:3:initial_magmoms:R:1 pbc="T T T"
Si       1.34969559      -1.35786924      -1.36119969       0.00000000
Si      -1.36383138       1.35969372      -1.36024129       0.00000000
Si       1.35316536       1.34042265       1.39508592       0.00000000
Si      -1.37788965      -1.35462753       1.39731078       0.00000000
Si      -0.36220815       2.43858042       2.72109870       0.00000000
Si       2.70903419      -2.71088406      -0.00595576       0.00000000
Si       2.70878984       0.00166158      -2.71764162       0.00000000
Si       2.70926225       2.72106531      -0.00225908       0.00000000
Si      -0.00541251      -2.71339272      -2.71825773       0.00000000
Si      -2.72062548      -2.71373481       0.00263560       0.00000000
