10
Lattice="16.28999089631971 0.0 0.0 0.0 16.28999089631971 0.0 0.0 0.0 34.2284985734139" Properties=species:S:1:pos:R:3:initial_magmoms:R:1 pbc="T T T"
Si      -1.35351981       1.35705474       1.35955672       0.00000000
Si      -1.35695700      -1.35764118      -1.35753724       0.00000000
Si       1.35780408       1.35757602      -1.35743456       0.00000000
Si       1.35843939      -1.35834165       1.36318495       0.00000000
Si      -0.00403992       2.72036484       2.68149631       0.00000000
Si      -2.71492398       2.71430496      -0.00027383       0.00000000
Si      -2.71432125       0.00003258      -2.71497180       0.00000000
Si       0.00078192       2.71480995      -2.71466374       0.00000000
Si       2.71523349       2.71508688       0.00030806       0.00000000
Si       0.00065160      -2.71566192      -2.71500602       0.00000000
