10
Lattice="16.28999089631971 0.0 0.0 0.0 16.28999089631971 0.0 0.0 0.0 34.2284985734139" Properties=species:S:1:pos:R:3:initial_magmoms:R:1 pbc="T T T"
Si       0.00938467       1.24361118      -1.97988015       0.00000000
Si      -1.06400492       1.00721070       1.93182331       0.00000000
Si       2.15819205       0.44944110       1.16637097       0.00000000
Si      -1.05053070      -2.28988530       0.27516305       0.00000000
Si       0.66933492      -0.15723108       2.90812332       0.00000000
Si      -0.26000632      -2.24205786       2.68118825       0.00000000
Si      -1.42713010      -0.06524145      -3.22785190       0.00000000
Si      -3.39817123      -0.59290713      -1.71224737       0.00000000
Si       0.03798176      -3.87874674      -1.36753197       0.00000000
Si      -0.40348212       3.16736244       2.61536681       0.00000000
