10
Lattice="16.28999089631971 0.0 0.0 0.0 16.28999089631971 0.0 0.0 0.0 34.2284985734139" Properties=species:S:1:pos:R:3:initial_magmoms:R:1 pbc="T T T"
Si       1.16862831      -0.58920930       1.93688913       0.00000000
Si      -0.10790496      -1.89377766      -1.38047035       0.00000000
Si      -2.25238572       0.71858448       0.05007632       0.00000000
Si       1.40212917       1.83760974      -0.55289325       0.00000000
Si      -2.99670840      -0.80630613       1.66559390       0.00000000
Si       1.60321293       2.92278438       1.57180776       0.00000000
Si       3.15910341      -1.71251883       1.29277689       0.00000000
Si       1.57444479       1.28329362       3.28525313       0.00000000
Si      -3.50298531      -0.25731684      -1.68041485       0.00000000
Si       1.18364769      -1.42908912      -3.42945787       0.00000000
