10
Lattice="16.28999089631971 0.0 0.0 0.0 16.28999089631971 0.0 0.0 0.0 34.2284985734139" Properties=species:S:1:pos:R:3:initial_magmoms:R:1 pbc="T T T"
Si       1.17139991       1.95774849       0.47605022       0.00000000
Si       1.14521373      -1.67005080      -1.20083909       0.00000000
Si      -1.18915371      -1.19185785       1.64817158       0.00000000
Si      -1.76562423       1.14075612      -1.13118405       0.00000000
Si      -2.17144071      -0.73174680      -2.47954805       0.00000000
Si      -0.18096561      -1.85505633      -3.12366030       0.00000000
Si       3.28501601      -0.76514130      -1.48818749       0.00000000
Si       0.91004315      -3.57117525       0.17148487       0.00000000
Si      -3.33485622      -0.33992343       1.71173394       0.00000000
Si       1.65785841       3.02055696      -1.55739756       0.00000000
