10
Lattice="16.28999089631971 0.0 0.0 0.0 16.28999089631971 0.0 0.0 0.0 34.2284985734139" Properties=species:S:1:pos:R:3:initial_magmoms:R:1 pbc="T T T"
Si       1.31308803      -1.20925557      -1.67182349       0.00000000
Si       1.96185357       0.88513344       1.20224246       0.00000000
Si      -1.62976726      -1.22116356       1.53484096       0.00000000
Si      -1.37950562       1.49418396      -1.65149175       0.00000000
Si       2.64878658      -2.64396474      -0.34101872       0.00000000
Si       2.57008959       2.73952188      -0.29371491       0.00000000
Si      -2.77181585      -2.61801477      -0.11555548       0.00000000
Si       3.66093315      -0.94915314       0.99587872       0.00000000
Si      -0.02363679      -2.55712275      -3.05253344       0.00000000
Si      -3.09487913       2.59234173      -0.32547897       0.00000000
