10
Lattice="16.28999089631971 0.0 0.0 0.0 16.28999089631971 0.0 0.0 0.0 34.2284985734139" Properties=species:S:1:pos:R:3:initial_magmoms:R:1 pbc="T T T"
Si       1.37292120      -1.29176442       1.46465539       0.00000000
Si       0.63871461       1.91387952      -1.28513507       0.00000000
Si      -1.35884664       1.38038202       1.46222174       0.00000000
Si      -0.77424741      -1.87134633      -1.55382893       0.00000000
Si       0.00355122       1.19830869      -3.51591025       0.00000000
Si       2.58193242       2.73417876       0.04227564       0.00000000
Si      -2.65790898      -2.67173919      -0.19884031       0.00000000
Si       2.76511347      -2.57054571       0.05489570       0.00000000
Si      -2.77563681       2.65535145       0.08090595       0.00000000
Si       0.00245979      -2.66302404       2.82883981       0.00000000
