10
Lattice="16.28999089631971 0.0 0.0 0.0 16.28999089631971 0.0 0.0 0.0 34.2284985734139" Properties=species:S:1:pos:R:3:initial_magmoms:R:1 pbc="T T T"
Si       1.33096046      -1.30774491      -1.44173939       0.00000000
Si      -2.27454012       0.57021516      -0.42703499       0.00000000
Si       1.07621418       2.05153002      -0.68847241       0.00000000
Si       0.24464322      -1.59611049       1.84604665       0.00000000
Si       2.66363396      -1.50444666       1.83615460       0.00000000
Si      -2.76348447       1.78882119       1.67969605       0.00000000
Si      -3.16219851      -1.50728112      -1.29862996       0.00000000
Si       0.15956055      -3.26549340      -1.91778962       0.00000000
Si       3.49545023      -1.41361362      -0.44267742       0.00000000
Si      -1.02004722      -0.77203197       3.69503694       0.00000000
