10
Lattice="16.28999089631971 0.0 0.0 0.0 16.28999089631971 0.0 0.0 0.0 34.2284985734139" Properties=species:S:1:pos:R:3:initial_magmoms:R:1 pbc="T T T"
Si      -1.89574549       1.33002963      -0.29340685       0.00000000
Si      -1.30618596      -1.95121620      -0.26954958       0.00000000
Si       1.49216400       0.38200050       1.85155744       0.00000000
Si       1.47214359       0.50207409      -1.85610983       0.00000000
Si      -0.96640425       3.41485641      -0.06647178       0.00000000
Si       3.11572314      -1.11234636      -1.42072308       0.00000000
Si      -3.14374913       0.79850322       1.61291621       0.00000000
Si       0.16179228      -3.64586327       0.42943098       0.00000000
Si       1.78579125      -3.03873171      -1.28254256       0.00000000
Si      -3.35864681      -1.45497393       0.88490987       0.00000000
