10
Lattice="16.28999089631971 0.0 0.0 0.0 16.28999089631971 0.0 0.0 0.0 34.2284985734139" Properties=species:S:1:pos:R:3:initial_magmoms:R:1 pbc="T T T"
Si       1.35713619      -1.35793440       1.35750301       0.00000000
Si      -1.35907470      -1.35677781      -1.35722918       0.00000000
Si      -1.35769005       1.35767376       1.35798221       0.00000000
Si       1.35777150       1.35811359      -1.35794798       0.00000000
Si      -2.71003698      -0.00071676      -2.71326037       0.00000000
Si       2.71305063      -0.00131949       2.71452682       0.00000000
Si      -0.00135207       2.71360449       2.71480065       0.00000000
Si       2.71275741      -0.00115659      -2.71582751       0.00000000
Si       2.71466334      -2.71521720       0.00041074       0.00000000
Si      -2.71474479      -2.71528236       0.00013691       0.00000000
