10
Lattice="16.28999089631971 0.0 0.0 0.0 16.28999089631971 0.0 0.0 0.0 34.2284985734139" Properties=species:S:1:pos:R:3:initial_magmoms:R:1 pbc="T T T"
Si       1.34818269       1.36252284      -1.37122865       0.00000000
Si      -1.36246302      -1.35195597      -1.36869574       0.00000000
Si      -1.29608127       1.22748408       1.55993047       0.00000000
Si       1.37330941      -1.35718506       1.42099691       0.00000000
Si      -0.56643588      -2.30500242       2.61016407       0.00000000
Si       0.74743407       1.94672572       2.87269681       0.00000000
Si      -2.36260386      -0.64037619       2.62635416       0.00000000
Si       2.53475236       0.19266183       2.75792859       0.00000000
Si      -2.70720252       2.71137017       0.02269351       0.00000000
Si       2.70865463       0.00381186      -2.72945046       0.00000000
