10
Lattice="16.28999089631971 0.0 0.0 0.0 16.28999089631971 0.0 0.0 0.0 34.2284985734139" Properties=species:S:1:pos:R:3:initial_magmoms:R:1 pbc="T T T"
Si       1.29608127      -1.22748408      -1.55993047       0.00000000
Si      -1.06652259      -1.86786027       1.06642370       0.00000000
Si       2.04351534       0.71924164       1.31276634       0.00000000
Si      -1.41112125       1.48388609      -1.53723696       0.00000000
Si       2.66939068      -2.58466914      -0.13893355       0.00000000
Si       0.72964539      -3.53248650       1.05023361       0.00000000
Si       2.61423549       2.79041903       0.00222485       0.00000000
Si      -0.06638175      -2.57944005      -2.92862620       0.00000000
Si       2.64426396       0.13503876      -2.93115911       0.00000000
Si      -2.91061575       2.68318196      -0.07804102       0.00000000
