10
Lattice="16.28999089631971 0.0 0.0 0.0 16.28999089631971 0.0 0.0 0.0 34.2284985734139" Properties=species:S:1:pos:R:3:initial_magmoms:R:1 pbc="T T T"
Si      -0.75789225      -1.84174740       1.30811126       0.00000000
Si       2.24694486       0.26121015       0.75597104       0.00000000
Si       0.50875299       0.13784598      -2.34749443       0.00000000
Si      -1.75730004      -1.29707496      -1.10955163       0.00000000
Si      -1.97141580       1.61645670       0.12592672       0.00000000
Si      -1.27446444      -0.00223173       2.80133035       0.00000000
Si      -1.28741499       1.80247221      -2.33130434       0.00000000
Si       2.33743581       2.43296037       1.60706313       0.00000000
Si      -3.49796799      -0.08781939       1.62475928       0.00000000
Si      -0.35357445      -1.68697611      -3.56561892       0.00000000
