10
Lattice="16.28999089631971 0.0 0.0 0.0 16.28999089631971 0.0 0.0 0.0 34.2284985734139" Properties=species:S:1:pos:R:3:initial_magmoms:R:1 pbc="T T T"
Si       0.32234652       2.27709765       0.65776942       0.00000000
Si       0.09969480      -1.07628030       2.14681263       0.00000000
Si       0.51657219      -1.83951567      -1.49321908       0.00000000
Si      -2.22350355      -0.08558766      -1.17657107       0.00000000
Si       1.27446444       0.00223173      -2.80133035       0.00000000
Si      -0.69695136       1.61868843      -2.67540363       0.00000000
Si       1.70797392      -2.68969077       1.68763707       0.00000000
Si      -0.50925798       3.49638786      -1.24475427       0.00000000
Si      -2.08264392      -1.90791738       2.56344215       0.00000000
Si       2.64339459       2.69742852       0.95778238       0.00000000
