10
Lattice="16.28999089631971 0.0 0.0 0.0 16.28999089631971 0.0 0.0 0.0 34.2284985734139" Properties=species:S:1:pos:R:3:initial_magmoms:R:1 pbc="T T T"
Si      -0.83144160       0.14291217       2.15003011       0.00000000
Si       2.31103691       0.24690753       0.57216390       0.00000000
Si      -1.03838976       1.63390329      -1.40932499       0.00000000
Si      -0.12183291      -2.29614066      -0.73574199       0.00000000
Si       2.45394908      -1.73242521       1.82746056       0.00000000
Si       3.18595652       0.00648342      -1.57680512       0.00000000
Si      -2.87930637      -1.07916363       1.90978015       0.00000000
Si       0.67969929      -1.21643946       3.39447633       0.00000000
Si      -0.00047241       2.31021522       2.86116179       0.00000000
Si      -0.06988410       1.37166687      -3.56137458       0.00000000
