10
Lattice="16.28999089631971 0.0 0.0 0.0 16.28999089631971 0.0 0.0 0.0 34.2284985734139" Properties=species:S:1:pos:R:3:initial_magmoms:R:1 pbc="T T T"
Si      -1.85323185       1.40400252       0.23439689       0.00000000
Si       0.20825136      -1.61859069       1.74613360       0.00000000
Si       2.04786477       1.22207580       0.24024997       0.00000000
Si      -0.70278318      -1.06064190      -2.13007489       0.00000000
Si       2.87930637       1.07916363      -1.90978015       0.00000000
Si      -3.61442520      -0.04704552      -0.42597390       0.00000000
Si      -1.57885938       2.92400613      -1.58532803       0.00000000
Si       0.90549594      -2.67405237      -2.58925045       0.00000000
Si      -2.88512190      -1.89227898      -1.71344537       0.00000000
Si      -0.67940703      -3.69608697       0.87453863       0.00000000
