10
Lattice="16.28999089631971 0.0 0.0 0.0 16.28999089631971 0.0 0.0 0.0 34.2284985734139" Properties=species:S:1:pos:R:3:initial_magmoms:R:1 pbc="T T T"
Si       1.18944693       1.82107539      -0.77014165       0.00000000
Si      -0.41604660       0.85644675       2.15047508       0.00000000
Si      -1.79180226      -0.94003074      -1.25060735       0.00000000
Si       1.36186029      -1.66208499       1.06084445       0.00000000
Si       1.50640620      -0.33379839       2.96812591       0.00000000
Si      -2.26403307      -2.73645936       0.19588981       0.00000000
Si      -0.04836501      -3.50088390       0.76473354       0.00000000
Si       2.83831488       0.95980680      -2.13366888       0.00000000
Si       2.11241131       2.77915545       1.21011501       0.00000000
Si      -2.68403814       0.35543151       2.58233629       0.00000000
