10
Lattice="16.28999089631971 0.0 0.0 0.0 16.28999089631971 0.0 0.0 0.0 34.2284985734139" Properties=species:S:1:pos:R:3:initial_magmoms:R:1 pbc="T T T"
Si      -0.54635031       1.91055636      -1.20162634       0.00000000
Si      -2.13980227      -0.90490950       0.28734841       0.00000000
Si       1.09817406       0.69569703       1.96026721       0.00000000
Si       1.16993151      -1.50641775      -1.39683158       0.00000000
Si       1.09006164      -1.39396788       3.10117216       0.00000000
Si      -3.28501601       0.76514130       1.48818749       0.00000000
Si      -0.32223249      -1.88841825      -3.24838902       0.00000000
Si       3.22274844       1.56462192       1.23934617       0.00000000
Si      -1.28863674       1.52643816      -3.31486080       0.00000000
Si       1.48050036      -3.57049107      -0.23275392       0.00000000
