10
Lattice="16.28999089631971 0.0 0.0 0.0 16.28999089631971 0.0 0.0 0.0 34.2284985734139" Properties=species:S:1:pos:R:3:initial_magmoms:R:1 pbc="T T T"
Si       0.41604660      -0.85644675      -2.15047508       0.00000000
Si      -2.26799154      -0.50101524       0.43186121       0.00000000
Si       1.92245280      -1.19024514       0.81765083       0.00000000
Si       0.65057373       2.37270366       0.42751419       0.00000000
Si      -1.63282815       0.21455559       2.66263639       0.00000000
Si      -2.70886410       1.28539503      -1.30218973       0.00000000
Si       1.77790689      -2.51853174      -1.08963063       0.00000000
Si       2.52845791       1.92270870      -0.94036007       0.00000000
Si       1.60549353       0.96462864      -2.92061673       0.00000000
Si       3.80437379       0.30343383       0.38072380       0.00000000
