10
Lattice="16.28999089631971 0.0 0.0 0.0 16.28999089631971 0.0 0.0 0.0 34.2284985734139" Properties=species:S:1:pos:R:3:initial_magmoms:R:1 pbc="T T T"
Si       1.35833964       1.35672894       1.35733187       0.00000000
Si      -1.35891448       1.35537687      -1.35880370       0.00000000
Si      -1.35700855      -1.35868374       1.35743456       0.00000000
Si       1.35840643      -1.35982404      -1.36051512       0.00000000
Si      -2.70127564       0.01223379      -2.72463108       0.00000000
Si       2.71616653       2.71235016      -0.00013691       0.00000000
Si      -2.71390039       2.71464705      -0.00092417       0.00000000
Si      -2.71453570      -0.00140094       2.71452682       0.00000000
Si       0.00067724       2.71448415       2.71473220       0.00000000
Si      -2.71373749      -2.71635750       0.00006846       0.00000000
