10
Lattice="16.28999089631971 0.0 0.0 0.0 16.28999089631971 0.0 0.0 0.0 34.2284985734139" Properties=species:S:1:pos:R:3:initial_magmoms:R:1 pbc="T T T"
Si       1.33999911       1.34438112       1.37444613       0.00000000
Si      -1.35831070       1.35172791      -1.35870101       0.00000000
Si       1.35495333      -1.36277253      -1.35870101       0.00000000
Si      -1.35609689      -1.38064266       1.39734501       0.00000000
Si       2.59349832      -0.13530474       2.75512185       0.00000000
Si      -2.71512665       2.70998811       0.00359399       0.00000000
Si      -0.00009774       2.71088406      -2.71582751       0.00000000
Si       2.71678104       2.71235016       0.00198525       0.00000000
Si       2.71450044      -0.00384444      -2.71562214       0.00000000
Si      -2.70926225      -2.72106531       0.00225908       0.00000000
