10
Lattice="16.28999089631971 0.0 0.0 0.0 16.28999089631971 0.0 0.0 0.0 34.2284985734139" Properties=species:S:1:pos:R:3:initial_magmoms:R:1 pbc="T T T"
Si      -1.43651477      -1.30885263      -1.24797176       0.00000000
Si      -0.00938467      -1.24361118       1.97988015       0.00000000
Si       1.55879987       1.53184644      -1.05416989       0.00000000
Si       0.27885874      -2.40701040      -2.57398453       0.00000000
Si      -2.43893621       0.32479002      -2.61067750       0.00000000
Si      -3.40755590      -1.83651831       0.26763278       0.00000000
Si       2.14880738      -0.79417008       3.14625112       0.00000000
Si       2.97495473       0.31801338      -2.59688341       0.00000000
Si       0.28727415       3.02673087      -2.58462960       0.00000000
Si      -1.07338959      -0.23640048       3.91170346       0.00000000
