10
Lattice="16.28999089631971 0.0 0.0 0.0 16.28999089631971 0.0 0.0 0.0 34.2284985734139" Properties=species:S:1:pos:R:3:initial_magmoms:R:1 pbc="T T T"
Si       2.21405535       0.00355122       0.79656606       0.00000000
Si      -0.81409275      -2.22922134      -0.07263291       0.00000000
Si      -1.09532331       0.71216622       2.04994593       0.00000000
Si       0.43513848       1.00735731      -2.90504275       0.00000000
Si       2.42665614       2.29047174       1.20323508       0.00000000
Si      -3.37576693       0.48870000       1.37636293       0.00000000
Si       1.08574479      -3.59958501      -0.36624514       0.00000000
Si      -0.25633944      -0.58300281       3.86419428       0.00000000
Si       2.11877514      -0.75100158      -3.23141167       0.00000000
Si      -2.30294988      -2.83589352       1.66911944       0.00000000
