10
Lattice="16.28999089631971 0.0 0.0 0.0 16.28999089631971 0.0 0.0 0.0 34.2284985734139" Properties=species:S:1:pos:R:3:initial_magmoms:R:1 pbc="T T T"
Si      -1.17139991      -1.95774849      -0.47605022       0.00000000
Si       0.48645850       1.06280847      -2.03344778       0.00000000
Si      -1.33096046       1.30774491       1.44173939       0.00000000
Si       2.16448977      -0.10586871       0.99906197       0.00000000
Si       1.51950351       2.84328918      -0.81374878       0.00000000
Si      -2.93702414      -0.81699237      -1.60723428       0.00000000
Si      -0.25474628       3.35927493       0.75326699       0.00000000
Si      -1.08631724      -0.28836558       3.28778604       0.00000000
Si       1.33267350      -0.19670175       3.27789400       0.00000000
Si       1.56726579      -0.81233343      -3.16586406       0.00000000
