10
Lattice="16.28999089631971 0.0 0.0 0.0 16.28999089631971 0.0 0.0 0.0 34.2284985734139" Properties=species:S:1:pos:R:3:initial_magmoms:R:1 pbc="T T T"
Si       1.20121645      -1.39690008       1.45771042       0.00000000
Si      -1.28003725      -1.39655799      -1.40994593       0.00000000
Si       1.45910344       1.08476739      -1.57971938       0.00000000
Si      -1.51666843       1.30579011       1.42861618       0.00000000
Si      -1.40479503       0.40773870      -3.14574252       0.00000000
Si       2.59195891       2.57517207      -0.02700972       0.00000000
Si       2.63393824      -2.68832241       0.09515870       0.00000000
Si       2.54905106      -0.04847904       2.82085087       0.00000000
Si      -0.16874322       2.66898618       2.81301254       0.00000000
Si      -2.83367712      -2.67188580       0.03927380       0.00000000
