10
Lattice="16.28999089631971 0.0 0.0 0.0 16.28999089631971 0.0 0.0 0.0 34.2284985734139" Properties=species:S:1:pos:R:3:initial_magmoms:R:1 pbc="T T T"
Si      -0.98197749       0.81665028      -2.00295017       0.00000000
Si      -1.45910344      -1.08476739       1.57971938       0.00000000
Si       1.32126561      -1.57783311      -1.27052835       0.00000000
Si       1.13285547       1.49040468       1.55270966       0.00000000
Si      -2.86389847      -0.67702869      -1.56602314       0.00000000
Si      -2.73914069      -2.48132538       0.16977345       0.00000000
Si       0.90981279       0.60476625      -3.56140881       0.00000000
Si       3.01299840       2.38905882       0.37608280       0.00000000
Si       2.76589539      -2.70589932       0.15532901       0.00000000
Si       2.43954153       0.20944053       3.03889478       0.00000000
