10
Lattice="16.28999089631971 0.0 0.0 0.0 16.28999089631971 0.0 0.0 0.0 34.36671206372826" Properties=species:S:1:pos:R:3:initial_magmoms:R:1 pbc="T T T"
Si       1.37239992      -1.28511076      -1.37313993       0.00000000
Si       1.36694277       1.34109530       1.36506719       0.00000000
Si      -1.34658027      -1.37418448       1.36664806       0.00000000
Si      -1.30299800       1.42860681      -1.44800786       0.00000000
Si       0.65816487       2.22460951      -2.42145583       0.00000000
Si      -0.53936190      -2.17886161      -2.61725478       0.00000000
Si      -2.70679297       2.70775462      -0.00780468       0.00000000
Si       0.00816129       2.70291649       2.72640215       0.00000000
Si      -2.70694014      -0.01343222       2.72626468       0.00000000
Si       2.70575271      -2.74331011      -0.00391093       0.00000000
