10
Lattice="16.28999089631971 0.0 0.0 0.0 16.28999089631971 0.0 0.0 0.0 34.36671206372826" Properties=species:S:1:pos:R:3:initial_magmoms:R:1 pbc="T T T"
Si       0.52134891       2.23680175      -0.41576871       0.00000000
Si      -1.52110011      -0.38941245       1.80097278       0.00000000
Si      -1.30300959      -1.19273751      -1.65589221       0.00000000
Si       2.14168100      -1.02506454       0.65125647       0.00000000
Si       1.37804489       2.58240387       1.82050340       0.00000000
Si       2.50336787       1.75455422      -1.59980571       0.00000000
Si      -2.88957414      -1.94919624       0.64414496       0.00000000
Si      -0.03880785      -1.58806323       3.25872704       0.00000000
Si       1.26871782      -2.96230392       1.72700527       0.00000000
Si       3.64399367      -0.28869138      -1.09427109       0.00000000
