10
Lattice="16.28999089631971 0.0 0.0 0.0 16.28999089631971 0.0 0.0 0.0 34.36671206372826" Properties=species:S:1:pos:R:3:initial_magmoms:R:1 pbc="T T T"
Si      -1.42190427       1.29535148       1.35738278       0.00000000
Si       1.34942287       1.36613153      -1.36209103       0.00000000
Si      -1.36933597      -1.34892996      -1.36449670       0.00000000
Si       1.38506539      -1.37069340       1.36002902       0.00000000
Si      -0.02107112      -2.58058428       2.80490951       0.00000000
Si      -2.75434482      -2.67291600       0.00192454       0.00000000
Si       2.70493006       0.00746571      -2.72342599       0.00000000
Si      -0.00969418      -2.70696210      -2.72315105       0.00000000
Si       2.71230944      -2.71924476      -0.00010310       0.00000000
Si       2.71483439       2.71735445       0.02244148       0.00000000
