10
Lattice="16.28999089631971 0.0 0.0 0.0 16.28999089631971 0.0 0.0 0.0 34.36671206372826" Properties=species:S:1:pos:R:3:initial_magmoms:R:1 pbc="T T T"
Si       1.13386545      -0.35967098       2.02801518       0.00000000
Si      -2.31660090      -0.01863902       0.44281533       0.00000000
Si       1.33587774       1.59735667      -1.25637896       0.00000000
Si      -0.73531431      -1.93950273      -1.39295235       0.00000000
Si       0.44652519      -0.24227303      -2.68259831       0.00000000
Si      -1.86828381      -1.99031124       1.68180473       0.00000000
Si      -0.37468629       3.20061848      -1.22300887       0.00000000
Si       0.72936846       1.86267190       2.82377684       0.00000000
Si      -0.39219804      -3.54374193       0.39360217       0.00000000
Si      -0.20957085      -1.75513251       3.42839074       0.00000000
