10
Lattice="16.28999089631971 0.0 0.0 0.0 16.28999089631971 0.0 0.0 0.0 34.36671206372826" Properties=species:S:1:pos:R:3:initial_magmoms:R:1 pbc="T T T"
Si       1.47463596       1.32799501      -1.28593435       0.00000000
Si      -1.33400439      -1.39219783      -1.40092543       0.00000000
Si       1.39497786      -0.97441241       1.69400492       0.00000000
Si      -1.77127686       1.26886231       1.03430114       0.00000000
Si       0.31503231       0.18739201       3.56094323       0.00000000
Si      -3.35392529      -0.68667726       1.37824339       0.00000000
Si      -0.64365048       2.24383510       2.87512074       0.00000000
Si      -2.74014090      -2.60208871       0.04395505       0.00000000
Si      -0.00423540       2.69585002      -2.73851298       0.00000000
Si       2.68925094      -0.00988966      -2.77910009       0.00000000
