10
Lattice="16.28999089631971 0.0 0.0 0.0 16.28999089631971 0.0 0.0 0.0 34.36671206372826" Properties=species:S:1:pos:R:3:initial_magmoms:R:1 pbc="T T T"
Si      -1.35668007       1.35812988       1.35597375       0.00000000
Si       1.35645201       1.35653346      -1.35913549       0.00000000
Si       1.35860229      -1.35767376       1.35621432       0.00000000
Si      -1.35698958      -1.35962856      -1.35693602       0.00000000
Si      -0.00417024      -2.70949941      -2.71167256       0.00000000
Si      -2.70936909       0.00182448      -2.71665574       0.00000000
Si      -0.00078192       2.71331127       2.71332217       0.00000000
Si      -2.71358820      -2.71445157      -0.00068733       0.00000000
Si      -2.71443528      -0.00024435       2.71383767       0.00000000
Si      -2.71362078       2.71485882      -0.00082480       0.00000000
