10
Lattice="16.28999089631971 0.0 0.0 0.0 16.28999089631971 0.0 0.0 0.0 34.36671206372826" Properties=species:S:1:pos:R:3:initial_magmoms:R:1 pbc="T T T"
Si      -1.46505744       1.26801360       1.32665893       0.00000000
Si      -1.35451350      -1.34187246      -1.37243541       0.00000000
Si       1.36005210       1.37494116      -1.37442868       0.00000000
Si       1.43132085      -1.35918873       1.43783530       0.00000000
Si      -0.10968057       2.40205824       2.81277949       0.00000000
Si      -2.70448209      -2.70596448       0.01477769       0.00000000
Si       2.70153360       2.71399545      -0.00384907       0.00000000
Si       2.72593602      -2.70205488      -0.01316246       0.00000000
Si       0.00104256      -2.70089829      -2.73064300       0.00000000
Si      -2.71410948       0.01497051      -2.73071173       0.00000000
