10
Lattice="16.28999089631971 0.0 0.0 0.0 16.28999089631971 0.0 0.0 0.0 34.36671206372826" Properties=species:S:1:pos:R:3:initial_magmoms:R:1 pbc="T T T"
Si      -1.35505107       1.35373158       1.35855125       0.00000000
Si       1.35790182      -1.36119240       1.35566445       0.00000000
Si       1.36601424       1.35182565      -1.35717315       0.00000000
Si      -1.35580041      -1.36677987      -1.36944207       0.00000000
Si       2.47805109      -0.14947704      -2.79200136       0.00000000
Si      -0.09615987       2.56419261      -2.73329611       0.00000000
Si      -2.70791928      -2.71590138      -0.00185580       0.00000000
Si       0.00195480       2.71228500       2.71376893       0.00000000
Si      -2.71217097      -0.00286704       2.71397514       0.00000000
Si      -2.71251306       2.71492398      -0.00230257       0.00000000
