10
Lattice="16.28999089631971 0.0 0.0 0.0 16.28999089631971 0.0 0.0 0.0 34.36671206372826" Properties=species:S:1:pos:R:3:initial_magmoms:R:1 pbc="T T T"
Si      -1.35589815      -1.35518139      -1.35734842       0.00000000
Si      -1.35254241       1.35878148       1.35721095       0.00000000
Si       1.36050822      -1.35358497       1.35679855       0.00000000
Si       1.35918873       1.35863487      -1.35635178       0.00000000
Si      -2.70928764       0.00811242       2.71249737       0.00000000
Si       0.00078192      -2.71331127      -2.71332217       0.00000000
Si      -2.71283886       0.00154755      -2.71414697       0.00000000
Si      -2.71365336      -2.71355562       0.00051550       0.00000000
Si      -2.71298547       2.71507059       0.00085917       0.00000000
Si       2.70198972      -0.01453068       2.72737816       0.00000000
