10
Lattice="16.28999089631971 0.0 0.0 0.0 16.28999089631971 0.0 0.0 0.0 34.36671206372826" Properties=species:S:1:pos:R:3:initial_magmoms:R:1 pbc="T T T"
Si       1.95890508      -0.93335184      -1.02103559       0.00000000
Si       1.61691282       1.01328687       1.46062045       0.00000000
Si      -0.90093474       2.06653311      -0.95467343       0.00000000
Si      -1.42579854      -2.01456801       0.70946680       0.00000000
Si      -2.09795652       0.64241244      -2.45560605       0.00000000
Si       0.60352821      -2.06739648      -2.50715615       0.00000000
Si      -1.22621346      -3.00679191      -1.39611409       0.00000000
Si      -3.03007032      -1.29583692      -1.37061398       0.00000000
Si       0.51847812      -2.89825164       2.06090414       0.00000000
Si       2.66522319      -2.33683308       0.85727811       0.00000000
