10
Lattice="16.28999089631971 0.0 0.0 0.0 16.28999089631971 0.0 0.0 0.0 34.36671206372826" Properties=species:S:1:pos:R:3:initial_magmoms:R:1 pbc="T T T"
Si       1.96152777       0.22540473       1.30806653       0.00000000
Si      -0.59930910      -2.30625675       0.35885741       0.00000000
Si      -1.96415046       1.39729104       0.08113985       0.00000000
Si       1.12423806       0.14025690      -2.13194017       0.00000000
Si       3.19819941      -1.59819561       0.52515802       0.00000000
Si      -2.95702596      -2.11739049       0.26135899       0.00000000
Si       2.95414263      -1.25680608      -1.80146969       0.00000000
Si      -1.77135831       2.36045358       2.26645156       0.00000000
Si      -0.49267476      -0.87302997      -3.59256062       0.00000000
Si       3.42534717       1.87432740       0.39425514       0.00000000
