10
Lattice="16.28999089631971 0.0 0.0 0.0 16.28999089631971 0.0 0.0 0.0 34.36671206372826" Properties=species:S:1:pos:R:3:initial_magmoms:R:1 pbc="T T T"
Si      -0.34311627       1.60423920      -1.78655453       0.00000000
Si      -1.07080686      -2.03996412       0.89635308       0.00000000
Si       2.17104975      -0.25317918       1.21098051       0.00000000
Si      -1.47608577       1.55343069       1.28820255       0.00000000
Si       0.18262719       1.78860942       3.03478857       0.00000000
Si       2.61053766      -1.61420868      -1.73926590       0.00000000
Si      -2.09262969       0.36481455      -2.87518947       0.00000000
Si       0.39219804       3.54374193      -0.39360217       0.00000000
Si       2.66566302      -2.38536099       0.51402320       0.00000000
Si       1.23030225      -0.30589362       3.42254840       0.00000000
