10
Lattice="16.28999089631971 0.0 0.0 0.0 16.28999089631971 0.0 0.0 0.0 34.36671206372826" Properties=species:S:1:pos:R:3:initial_magmoms:R:1 pbc="T T T"
Si      -1.57996710       0.45212895      -1.72459131       0.00000000
Si      -1.28762676      -1.40564781       1.48295882       0.00000000
Si       1.86373890      -0.69727716      -1.40762695       0.00000000
Si       0.56847213       1.99094166       1.30291152       0.00000000
Si       1.08554931      -1.75519863       2.23662124       0.00000000
Si       2.20219623       0.46467225       2.19160082       0.00000000
Si       1.47238794      -3.01806459      -1.27483390       0.00000000
Si      -0.30846744       1.89754621      -3.13730453       0.00000000
Si       2.08256247       3.07111202      -0.40758943       0.00000000
Si      -1.80511119      -1.73345148      -2.77896262       0.00000000
