10
Lattice="16.28999089631971 0.0 0.0 0.0 16.28999089631971 0.0 0.0 0.0 34.36671206372826" Properties=species:S:1:pos:R:3:initial_magmoms:R:1 pbc="T T T"
Si      -1.37490858      -1.31184592      -1.35933138       0.00000000
Si       1.34850249      -1.35121165       1.35456471       0.00000000
Si       1.35394335       1.34678715      -1.37109855       0.00000000
Si      -1.36311462       1.36154589       1.35057817       0.00000000
Si      -2.16510390       0.59591589      -2.73557806       0.00000000
Si      -0.31253994       2.41541115      -2.69303205       0.00000000
Si      -0.07392402      -2.68022206      -2.69428987       0.00000000
Si       2.71005327      -2.70903907      -0.01037875       0.00000000
Si       2.70910845       0.00400245       2.71046973       0.00000000
Si      -0.00490329      -2.70975583       2.71019479       0.00000000
