10
Lattice="16.28999089631971 0.0 0.0 0.0 16.28999089631971 0.0 0.0 0.0 34.36671206372826" Properties=species:S:1:pos:R:3:initial_magmoms:R:1 pbc="T T T"
Si       1.34695494       1.35547461      -1.35906675       0.00000000
Si      -1.36585134      -1.35423657      -1.36009776       0.00000000
Si      -1.29461517       1.34286615       1.45099776       0.00000000
Si       1.43088102      -1.33112106       1.42642555       0.00000000
Si       2.14736409       0.58300281       2.52983819       0.00000000
Si      -0.37872621      -2.05817634       2.76126376       0.00000000
Si      -2.08929024      -0.45491454       2.79463385       0.00000000
Si       0.41176233       2.35625076       2.88769896       0.00000000
Si       2.70353727       0.00172674      -2.71830534       0.00000000
Si       2.70542691      -2.71996248       0.01787070       0.00000000
