10
Lattice="16.28999089631971 0.0 0.0 0.0 16.28999089631971 0.0 0.0 0.0 34.36671206372826" Properties=species:S:1:pos:R:3:initial_magmoms:R:1 pbc="T T T"
Si      -1.71056403       1.60326180       0.03337010       0.00000000
Si       1.80960723       0.72705528      -1.33483821       0.00000000
Si      -1.33587774      -1.59735667       1.25637896       0.00000000
Si      -0.88935255      -1.83962970      -1.42621935       0.00000000
Si       0.37872621       2.05817634      -2.76126376       0.00000000
Si      -1.34887716       2.15614440       2.52911649       0.00000000
Si       2.52609030       2.64117915      -0.23142557       0.00000000
Si      -2.35820556      -0.65147294      -2.77391071       0.00000000
Si      -0.91588896       3.40104249      -1.31026600       0.00000000
Si      -0.20201229      -1.95702766       3.28439414       0.00000000
