10
Lattice="16.28999089631971 0.0 0.0 0.0 16.28999089631971 0.0 0.0 0.0 34.36671206372826" Properties=species:S:1:pos:R:3:initial_magmoms:R:1 pbc="T T T"
Si       2.12924961      -0.65578150       0.69029016       0.00000000
Si      -1.13386545       0.35967098      -2.02801518       0.00000000
Si      -1.34343630      -1.39546153       1.40037557       0.00000000
Si      -0.40449699       2.22234289       0.79576166       0.00000000
Si      -3.00214926      -1.63064026      -0.34621045       0.00000000
Si       0.64498626      -3.43725013      -0.42343250       0.00000000
Si      -2.57658930       1.87955242       1.70184053       0.00000000
Si       1.99580193      -0.97151428       3.03172993       0.00000000
Si       2.85040791      -2.41282090      -0.70259345       0.00000000
Si      -3.45046635       0.34103196      -1.58519985       0.00000000
