10
Lattice="16.28999089631971 0.0 0.0 0.0 16.28999089631971 0.0 0.0 0.0 34.36671206372826" Properties=species:S:1:pos:R:3:initial_magmoms:R:1 pbc="T T T"
Si       1.33915203       1.34988714      -1.38065594       0.00000000
Si       1.35286821      -1.36000323       1.35985719       0.00000000
Si      -1.36394541       1.35607734       1.35934169       0.00000000
Si      -1.36438524      -1.35640314      -1.37175839       0.00000000
Si      -0.24379614       2.56779270      -2.78832412       0.00000000
Si       2.58023826      -0.14957478      -2.78625181       0.00000000
Si       2.70953199      -2.71277370       0.00333357       0.00000000
Si       2.71111212      -0.00127062       2.71792731       0.00000000
Si       2.71606428       2.71334385      -0.00051550       0.00000000
Si      -0.00449604       2.71427238       2.71727434       0.00000000
