10
Lattice="16.28999089631971 0.0 0.0 0.0 16.28999089631971 0.0 0.0 0.0 34.36671206372826" Properties=species:S:1:pos:R:3:initial_magmoms:R:1 pbc="T T T"
Si       0.85750560       1.58504958      -1.54767138       0.00000000
Si      -1.70637750      -1.01338461      -1.43670120       0.00000000
Si       1.73560176      -1.77324795      -0.35786077       0.00000000
Si      -2.54106081       1.34438112       1.81655668       0.00000000
Si      -1.01546973      -0.08192241       3.38838787       0.00000000
Si       2.30987313       0.36711144      -2.90271722       0.00000000
Si      -0.41176233      -2.35625076      -2.88769896       0.00000000
Si      -2.50105257      -2.81116530      -0.09306511       0.00000000
Si       1.86717609       3.32027667      -0.21771324       0.00000000
Si       1.98382878       2.58576057       2.16627254       0.00000000
