10
Lattice="16.28999089631971 0.0 0.0 0.0 16.28999089631971 0.0 0.0 0.0 34.36671206372826" Properties=species:S:1:pos:R:3:initial_magmoms:R:1 pbc="T T T"
Si      -0.19025091       1.17711540       2.06090414       0.00000000
Si       1.78880490       1.06201026      -1.18066905       0.00000000
Si      -1.95002703       0.61208046      -1.24771855       0.00000000
Si       0.21245418      -2.35255293       0.43037458       0.00000000
Si       0.78600879       3.17526309      -1.32944263       0.00000000
Si       1.60788816       0.26485911       3.29192045       0.00000000
Si      -1.48827069       2.81005758      -1.93192580       0.00000000
Si      -1.74467529      -3.32446320      -0.54375042       0.00000000
Si      -2.27766780       0.61952499       3.01987341       0.00000000
Si      -2.03657580      -0.53344863      -3.27305312       0.00000000
