10
Lattice="16.28999089631971 0.0 0.0 0.0 16.28999089631971 0.0 0.0 0.0 34.36671206372826" Properties=species:S:1:pos:R:3:initial_magmoms:R:1 pbc="T T T"
Si      -1.33915203      -1.34988714       1.38065594       0.00000000
Si       1.37691225       1.36345671       1.38014043       0.00000000
Si       1.24108623      -1.49946192      -1.40559587       0.00000000
Si      -1.58294817       1.21790556      -1.40766819       0.00000000
Si      -2.70353727      -2.70629028       0.00889755       0.00000000
Si      -2.69498502       2.71920825       0.02716003       0.00000000
Si       2.71329498      -2.70959715       0.03022898       0.00000000
Si       2.72855871       2.70974376       0.00157056       0.00000000
Si      -2.70309744       0.00619020       2.73999762       0.00000000
Si       0.01371618      -2.70989037       2.74051312       0.00000000
