10
Lattice="16.28999089631971 0.0 0.0 0.0 16.28999089631971 0.0 0.0 0.0 34.36671206372826" Properties=species:S:1:pos:R:3:initial_magmoms:R:1 pbc="T T T"
Si      -1.35645201      -1.35653346       1.35913549       0.00000000
Si      -1.35790182       1.36119240      -1.35566445       0.00000000
Si       1.35944937       1.35819504       1.35793265       0.00000000
Si       1.36394541      -1.35607734      -1.35934169       0.00000000
Si       0.00811242       2.71301805      -2.71283760       0.00000000
Si      -2.71295289       2.71492398       0.00288681       0.00000000
Si      -2.71313208       0.00159642       2.71510924       0.00000000
Si       0.00215028      -2.71420722       2.71534980       0.00000000
Si      -2.71344159      -2.71616202       0.00219947       0.00000000
Si       0.00195480       2.71541268       2.71610587       0.00000000
