10
Lattice="16.28999089631971 0.0 0.0 0.0 16.28999089631971 0.0 0.0 0.0 34.36671206372826" Properties=species:S:1:pos:R:3:initial_magmoms:R:1 pbc="T T T"
Si      -1.35891180       1.35509994      -1.36353443       0.00000000
Si       1.35563751      -1.36093176      -1.36563080       0.00000000
Si       1.35927018       1.36016613       1.38147386       0.00000000
Si      -1.37402892      -1.37526696       1.36319076       0.00000000
Si       2.70912474      -2.71166598      -0.00463951       0.00000000
Si       2.71130760       2.71415835      -0.00762941       0.00000000
Si      -2.71639008       2.71296918       0.00161524       0.00000000
Si      -2.71551042      -2.71432125      -0.00738885       0.00000000
Si      -0.00123804       2.71357191      -2.72047045       0.00000000
Si       2.71300176      -0.00102627      -2.72122652       0.00000000
