10
Lattice="16.28999089631971 0.0 0.0 0.0 16.28999089631971 0.0 0.0 0.0 34.36671206372826" Properties=species:S:1:pos:R:3:initial_magmoms:R:1 pbc="T T T"
Si       1.79813907      -0.91225629       1.23101631       0.00000000
Si      -2.08741689      -0.55759041       0.95896927       0.00000000
Si      -0.19940589       2.36556864       0.01735520       0.00000000
Si       0.19025091      -1.17711540      -2.06090414       0.00000000
Si      -3.63490173       0.70819146      -0.30084637       0.00000000
Si      -2.10929436      -2.92035717       0.96433048       0.00000000
Si      -2.49841359       2.75336838      -0.49708040       0.00000000
Si      -1.75977612      -0.56503494      -3.30862269       0.00000000
Si       1.97905581      -0.11510514      -3.24157319       0.00000000
Si       0.97383249      -2.77400781       2.42742533       0.00000000
