10
Lattice="16.28999089631971 0.0 0.0 0.0 16.28999089631971 0.0 0.0 0.0 34.36671206372826" Properties=species:S:1:pos:R:3:initial_magmoms:R:1 pbc="T T T"
Si      -1.35791811      -1.35720135      -1.35700475       0.00000000
Si       1.35767376       1.35847197      -1.35693602       0.00000000
Si       1.35891180      -1.35509994       1.36353443       0.00000000
Si      -1.35747828       1.35786924       1.36514967       0.00000000
Si      -0.00042354      -2.71441899      -2.71517797       0.00000000
Si       2.71498914       0.00110772      -2.71514360       0.00000000
Si       2.71454931      -2.71603170      -0.00209637       0.00000000
Si       0.00057015       2.71590138      -2.71490304       0.00000000
Si      -2.71581993       0.00086337      -2.71500614       0.00000000
Si      -2.71599912       2.71671588      -0.00048113       0.00000000
