10
Lattice="16.28999089631971 0.0 0.0 0.0 16.28999089631971 0.0 0.0 0.0 34.36671206372826" Properties=species:S:1:pos:R:3:initial_magmoms:R:1 pbc="T T T"
Si      -0.88935255      -1.97192079       1.04980054       0.00000000
Si       1.76474457       0.84960495       1.39714509       0.00000000
Si       1.31580846      -1.29694464      -1.59458196       0.00000000
Si      -1.38811977       1.41315750      -1.59296673       0.00000000
Si       2.51722854       2.77193731       0.01013819       0.00000000
Si       2.77068465      -2.52548757      -0.05890458       0.00000000
Si       0.87658119       0.41353794       3.72088599       0.00000000
Si      -2.66116698       2.94375680      -0.28713404       0.00000000
Si      -0.04346172      -2.65711077      -2.97605583       0.00000000
Si      -2.80989468      -2.84824134      -0.09426794       0.00000000
