10
Lattice="16.28999089631971 0.0 0.0 0.0 16.28999089631971 0.0 0.0 0.0 34.36671206372826" Properties=species:S:1:pos:R:3:initial_magmoms:R:1 pbc="T T T"
Si       0.76740561      -1.99583451       0.96690798       0.00000000
Si       0.04051323       1.47085668       1.83800152       0.00000000
Si      -2.19638070      -0.27269460      -0.95914110       0.00000000
Si       1.78825104       0.10599903      -1.66902030       0.00000000
Si       0.69682104      -3.42665037      -0.81590057       0.00000000
Si      -1.70360820      -0.40768983      -3.25806922       0.00000000
Si       1.15676919       1.92679749      -2.96313394       0.00000000
Si       1.77647337      -2.17510596      -2.47172405       0.00000000
Si       2.24696115       2.31875118       1.92635839       0.00000000
Si       2.98747197      -1.65086118       1.66008495       0.00000000
