10
Lattice="16.28999089631971 0.0 0.0 0.0 16.28999089631971 0.0 0.0 0.0 34.36671206372826" Properties=species:S:1:pos:R:3:initial_magmoms:R:1 pbc="T T T"
Si       0.77449176       1.88608389      -1.22668065       0.00000000
Si       1.30772862      -1.38648655       1.48439191       0.00000000
Si      -1.41152850       1.31225235       1.50833865       0.00000000
Si      -1.78854426      -1.18491994      -1.22372511       0.00000000
Si       2.56414374       2.67134334       0.11988147       0.00000000
Si      -1.32364395       3.31362546      -1.20100870       0.00000000
Si      -0.90098361      -1.53198883      -3.39099428       0.00000000
Si       2.52130104      -2.91667141       0.03768999       0.00000000
Si      -3.07801179       2.38087635       0.18640515       0.00000000
Si       2.66132988      -0.03253439       2.87008945       0.00000000
