10
Lattice="16.28999089631971 0.0 0.0 0.0 16.28999089631971 0.0 0.0 0.0 34.36671206372826" Properties=species:S:1:pos:R:3:initial_magmoms:R:1 pbc="T T T"
Si       1.34555400       1.34732961       1.36174736       0.00000000
Si      -1.36225125       1.35417141      -1.35879182       0.00000000
Si       1.35498591      -1.36080470      -1.35958226       0.00000000
Si      -1.36036161      -1.36751781       1.37738422       0.00000000
Si       2.65704561      -0.07346790       2.72239498       0.00000000
Si      -2.63490750       0.02132361       2.78593907       0.00000000
Si       2.71246209       2.71353933      -0.00491444       0.00000000
Si      -2.71883358       2.70791928       0.00044677       0.00000000
Si       2.70961391      -2.71774934       0.00051550       0.00000000
Si      -0.00289962       2.71194291      -2.71565910       0.00000000
