10
Lattice="16.28999089631971 0.0 0.0 0.0 16.28999089631971 0.0 0.0 0.0 34.36671206372826" Properties=species:S:1:pos:R:3:initial_magmoms:R:1 pbc="T T T"
Si      -1.34555400      -1.34732961      -1.36174736       0.00000000
Si       1.31149161      -1.42079751       1.36064762       0.00000000
Si       1.36690809       1.36620972      -1.36666180       0.00000000
Si      -1.33978734       1.42483743       1.38092400       0.00000000
Si       2.24806302       0.25177824       2.60791940       0.00000000
Si       0.41655159       1.99762641       3.11070468       0.00000000
Si      -2.68970706       2.72847726      -0.01725210       0.00000000
Si      -2.70591561      -2.71484742       0.01563686       0.00000000
Si      -2.70780525       0.00684180      -2.72053918       0.00000000
Si       0.00943191      -2.70813431      -2.72132962       0.00000000
