10
Lattice="16.28999089631971 0.0 0.0 0.0 16.28999089631971 0.0 0.0 0.0 34.36671206372826" Properties=species:S:1:pos:R:3:initial_magmoms:R:1 pbc="T T T"
Si       0.93657141       1.67257575       1.24727178       0.00000000
Si       1.42190427      -1.29535148      -1.35738278       0.00000000
Si      -1.31149161       1.42079751      -1.36064762       0.00000000
Si      -1.29878541      -1.21329386       1.61822628       0.00000000
Si       2.36969720      -0.00498474       2.43787282       0.00000000
Si       0.78704876      -1.96052431       2.78181506       0.00000000
Si       2.56763699       2.67390576      -0.02264768       0.00000000
Si       0.05256830      -2.64428144      -2.72187948       0.00000000
Si      -2.65704561       0.07346790      -2.72239498       0.00000000
Si      -2.81251737      -2.64371296       0.26943517       0.00000000
