10
Lattice="16.28999089631971 0.0 0.0 0.0 16.28999089631971 0.0 0.0 0.0 34.36671206372826" Properties=species:S:1:pos:R:3:initial_magmoms:R:1 pbc="T T T"
Si      -1.56147795      -0.20268670      -1.74390541       0.00000000
Si       1.97890010      -0.98572908      -0.94628795       0.00000000
Si      -0.43385157      -1.67399854       1.69458915       0.00000000
Si      -0.47708523       2.42426314       0.00910718       0.00000000
Si       1.16919846       3.24174421       1.40999825       0.00000000
Si       1.31264820      -3.23748016      -1.32002615       0.00000000
Si       1.01292849      -3.46637095       0.97006972       0.00000000
Si       2.45452900       0.26862373      -2.84078837       0.00000000
Si      -0.98533323       1.40871196      -3.37044844       0.00000000
Si      -3.70947735       0.21020290      -0.81036752       0.00000000
