10
Lattice="16.28999089631971 0.0 0.0 0.0 16.28999089631971 0.0 0.0 0.0 34.36671206372826" Properties=species:S:1:pos:R:3:initial_magmoms:R:1 pbc="T T T"
Si       1.35775311      -1.35461124       1.35270891       0.00000000
Si      -1.35760860      -1.35620766      -1.35803575       0.00000000
Si       1.35754408       1.35889551      -1.35813885       0.00000000
Si      -1.36174626       1.36394541       1.35861999       0.00000000
Si      -2.69886204       0.00765630       2.70211861       0.00000000
Si       2.69372647       0.00821016       2.71304723       0.00000000
Si       2.71345692      -2.71308321      -0.00082480       0.00000000
Si      -0.00042354      -2.71282257      -2.71534980       0.00000000
Si      -2.71459818       0.00074934      -2.71479994       0.00000000
Si      -2.71523349       2.71467963      -0.00237130       0.00000000
