10
Lattice="16.28999089631971 0.0 0.0 0.0 16.28999089631971 0.0 0.0 0.0 34.36671206372826" Properties=species:S:1:pos:R:3:initial_magmoms:R:1 pbc="T T T"
Si       2.30208392      -0.13242141       0.51673817       0.00000000
Si      -0.90352485      -1.74687444       1.38477307       0.00000000
Si      -0.08079840       2.25971622       1.03378564       0.00000000
Si      -0.27292266      -1.08892134      -2.63555025       0.00000000
Si      -0.17073549      -0.96000228       3.49406557       0.00000000
Si       2.41187201      -2.49075729       1.14726459       0.00000000
Si      -1.85075577       3.26008512      -0.07302930       0.00000000
Si       0.32047317      -3.72913938       0.92233433       0.00000000
Si       2.93030126       1.71167175       1.95240837       0.00000000
Si      -3.11577201      -2.30521419       0.72049852       0.00000000
