10
Lattice="16.28999089631971 0.0 0.0 0.0 16.28999089631971 0.0 0.0 0.0 34.36671206372826" Properties=species:S:1:pos:R:3:initial_magmoms:R:1 pbc="T T T"
Si       0.73278936       0.78687216       2.10929250       0.00000000
Si       1.22399802      -1.98226494      -0.46243874       0.00000000
Si      -2.21224716      -0.55833975      -0.66427455       0.00000000
Si       0.90352485       1.74687444      -1.38477307       0.00000000
Si       3.31539686      -0.74388285      -0.23750848       0.00000000
Si      -1.59601275      -1.13057487      -2.83412123       0.00000000
Si      -0.85615353       2.42494569       2.54650605       0.00000000
Si      -0.00636939      -0.95720040       3.56517034       0.00000000
Si       3.20560877       1.61445303      -0.86803490       0.00000000
Si      -2.69656515      -2.44079586       0.81081429       0.00000000
