10
Lattice="16.28999089631971 0.0 0.0 0.0 16.28999089631971 0.0 0.0 0.0 34.36671206372826" Properties=species:S:1:pos:R:3:initial_magmoms:R:1 pbc="T T T"
Si      -0.41570451      -1.35097857       1.90333268       0.00000000
Si       0.79103493       2.21081364       0.45786796       0.00000000
Si      -2.09587140      -0.02813283      -1.20331673       0.00000000
Si       1.99453198      -1.13668362      -0.76369750       0.00000000
Si       2.00977942       2.64627792      -1.60093981       0.00000000
Si       0.05452263      -3.54372660       1.10557774       0.00000000
Si       1.28770725      -1.09424817       3.48134988       0.00000000
Si       3.77488889      -0.56751102       0.66028801       0.00000000
Si       1.70490881       1.01879289      -3.38477936       0.00000000
Si       1.85333026      -3.44206071      -0.42748777       0.00000000
