10
Lattice="16.28999089631971 0.0 0.0 0.0 16.28999089631971 0.0 0.0 0.0 34.36671206372826" Properties=species:S:1:pos:R:3:initial_magmoms:R:1 pbc="T T T"
Si       1.70341176       0.25673040       1.57801720       0.00000000
Si      -1.86108363       0.52569459       1.36594010       0.00000000
Si       0.41570451       1.35097857      -1.90333268       0.00000000
Si       0.47022714      -2.19274803      -0.79775493       0.00000000
Si       2.41023649       0.21429495      -2.66703018       0.00000000
Si      -0.97085142       1.92702555       3.05939515       0.00000000
Si      -1.68016689       1.32284574      -3.10664941       0.00000000
Si       2.75472764      -1.92847536       1.72349157       0.00000000
Si       2.26903477      -2.09108214      -2.33082045       0.00000000
Si      -1.17605655      -3.01022910      -2.19864600       0.00000000
