10
Lattice="16.28999089631971 0.0 0.0 0.0 16.28999089631971 0.0 0.0 0.0 34.36671206372826" Properties=species:S:1:pos:R:3:initial_magmoms:R:1 pbc="T T T"
Si       1.76995737      -1.00036890       1.10681495       0.00000000
Si      -1.85446989      -1.39950648      -0.62148797       0.00000000
Si      -0.51478029       2.10766536       1.15159480       0.00000000
Si       2.68804615       2.24730324      -0.65990997       0.00000000
Si       0.92185110       2.35211310      -2.63572209       0.00000000
Si      -1.97112258      -0.66499038      -3.00547375       0.00000000
Si      -1.76272461       1.27549071       3.03358574       0.00000000
Si       1.85075577      -3.26008512       0.07302930       0.00000000
Si      -3.69119997       0.36383715      -0.75019138       0.00000000
Si       1.49781663      -0.65695941       3.46523188       0.00000000
