10
Lattice="16.28999089631971 0.0 0.0 0.0 16.28999089631971 0.0 0.0 0.0 34.36671206372826" Properties=species:S:1:pos:R:3:initial_magmoms:R:1 pbc="T T T"
Si      -1.07965233      -1.25154441       1.65582348       0.00000000
Si      -1.78732251       0.27215703      -1.51189561       0.00000000
Si       0.01177767       2.28110499       0.80270374       0.00000000
Si       1.47321873      -1.66029309      -1.08024946       0.00000000
Si       2.64160727       0.71832384      -1.73455766       0.00000000
Si      -1.00906776       0.17927145       3.43863203       0.00000000
Si      -0.53937819       1.10433168      -3.39388655       0.00000000
Si       0.06647949      -3.58534755      -0.54117292       0.00000000
Si      -1.77647337       2.17510596       2.47172405       0.00000000
Si      -0.07685622      -3.36479724       1.80459706       0.00000000
