10
Lattice="16.28999089631971 0.0 0.0 0.0 16.28999089631971 0.0 0.0 0.0 34.36671206372826" Properties=species:S:1:pos:R:3:initial_magmoms:R:1 pbc="T T T"
Si      -1.17333612       1.72988397       1.05296228       0.00000000
Si       2.17899927       0.76685175      -0.48285257       0.00000000
Si      -1.19940012      -0.83465073      -1.89467226       0.00000000
Si       0.18243171      -1.13487543       2.28232899       0.00000000
Si       1.68837705      -2.71114470       1.01244390       0.00000000
Si       0.04685004       0.22874418      -3.51956568       0.00000000
Si      -2.33908110      -1.16941023       2.43014030       0.00000000
Si       2.26691640       0.57371751      -2.82638871       0.00000000
Si      -3.31268553       0.77809185       1.43137436       0.00000000
Si      -1.66112388       3.40946442      -0.49556826       0.00000000
