10
Lattice="16.28999089631971 0.0 0.0 0.0 16.28999089631971 0.0 0.0 0.0 34.36671206372826" Properties=species:S:1:pos:R:3:initial_magmoms:R:1 pbc="T T T"
Si       0.70626924       2.17723995      -0.45824599       0.00000000
Si      -2.22006636      -0.34497333      -0.69317697       0.00000000
Si      -0.08791713       0.19313424       2.34353614       0.00000000
Si       1.59905151      -1.65009555      -0.66602725       0.00000000
Si       3.08984552      -1.40527314       1.26974762       0.00000000
Si      -2.26691640      -0.57371751       2.82638871       0.00000000
Si       1.00598895       2.40613074      -2.74834187       0.00000000
Si      -2.98747197       1.65086118      -1.66008495       0.00000000
Si       2.85620945       2.47985928       0.37067956       0.00000000
Si      -2.29065093      -1.77578919      -2.47598552       0.00000000
