10
Lattice="16.28999089631971 0.0 0.0 0.0 16.28999089631971 0.0 0.0 0.0 34.36671206372826" Properties=species:S:1:pos:R:3:initial_magmoms:R:1 pbc="T T T"
Si      -1.34462547      -1.34021088       1.37863173       0.00000000
Si       1.37327048       1.36767582       1.37643226       0.00000000
Si      -1.48229226       1.19865078      -1.45775426       0.00000000
Si       1.30752567      -1.37424069      -1.53172178       0.00000000
Si       2.18048885       0.56299869      -2.60747057       0.00000000
Si       0.03880785       1.58806323      -3.25872704       0.00000000
Si      -2.70275535      -2.71393029      -0.00244691       0.00000000
Si      -2.69586468       2.72883564      -0.01105234       0.00000000
Si      -2.70075168       0.01316232       2.73690805       0.00000000
Si       2.72540564      -2.71295289      -0.02182287       0.00000000
