10
Lattice="16.28999089631971 0.0 0.0 0.0 16.28999089631971 0.0 0.0 0.0 34.36671206372826" Properties=species:S:1:pos:R:3:initial_magmoms:R:1 pbc="T T T"
Si      -1.35622395      -1.35589815      -1.35758899       0.00000000
Si      -1.35791811       1.35928647       1.35600812       0.00000000
Si       1.35921304       1.35824391      -1.35745152       0.00000000
Si       1.36145324      -1.35496962       1.35971972       0.00000000
Si      -2.71044423       2.71748151      -0.00020620       0.00000000
Si      -2.71314837       0.00133578      -2.71504050       0.00000000
Si       0.00162900      -2.71379997      -2.71504050       0.00000000
Si      -2.71358820      -2.71580364      -0.00199327       0.00000000
Si       0.00185706       2.71573848      -2.71490304       0.00000000
Si       2.71683710      -2.71422351      -0.00061860       0.00000000
