10
Lattice="16.28999089631971 0.0 0.0 0.0 16.28999089631971 0.0 0.0 0.0 34.36671206372826" Properties=species:S:1:pos:R:3:initial_magmoms:R:1 pbc="T T T"
Si      -1.35252612       1.35819504      -1.35621432       0.00000000
Si       1.35791811      -1.35928647      -1.35600812       0.00000000
Si       1.32945948       1.39033521       1.36893001       0.00000000
Si      -1.35203742      -1.35399222       1.38910328       0.00000000
Si      -2.71256193       2.71041986       0.00412401       0.00000000
Si      -2.71254564      -0.00058644      -2.71284103       0.00000000
Si      -2.71130760      -2.71415835       0.00762941       0.00000000
Si       0.00226431       2.71401988      -2.71328780       0.00000000
Si       0.00169416      -2.71518462      -2.71359710       0.00000000
Si       2.71446833       2.71432125       0.00250877       0.00000000
