10
Lattice="16.28999089631971 0.0 0.0 0.0 16.28999089631971 0.0 0.0 0.0 34.36671206372826" Properties=species:S:1:pos:R:3:initial_magmoms:R:1 pbc="T T T"
Si       1.53469719       0.94377744      -1.59781244       0.00000000
Si      -1.00813923      -1.77069042      -1.47646351       0.00000000
Si      -2.01407931       1.60440210      -0.02041384       0.00000000
Si       1.76619505      -0.10480986       1.97581211       0.00000000
Si      -0.92185110      -2.35211310       2.63572209       0.00000000
Si       2.95175519       2.29451166      -0.22932920       0.00000000
Si       0.21848148       2.20217994      -3.03231417       0.00000000
Si      -2.90224269       1.16833509       2.30332706       0.00000000
Si      -2.46301542      -0.54214749      -3.01214090       0.00000000
Si      -1.26159534       3.52673446      -1.40742075       0.00000000
