10
Lattice="16.28999089631971 0.0 0.0 0.0 16.28999089631971 0.0 0.0 0.0 34.36671206372826" Properties=species:S:1:pos:R:3:initial_magmoms:R:1 pbc="T T T"
Si      -0.29971971      -0.22889079       2.29009587       0.00000000
Si      -2.20520988      -0.64927053      -0.58076339       0.00000000
Si       0.66625190       2.25175108       0.37373820       0.00000000
Si       1.50825105      -1.52552592      -1.08746648       0.00000000
Si      -2.83669173       1.17152793      -1.87487702       0.00000000
Si       1.85022050       0.07372854       3.11902143       0.00000000
Si      -1.31264820       3.23748016       1.32002615       0.00000000
Si       2.60277452       1.99837072       1.83635192       0.00000000
Si      -1.00598895      -2.40613074       2.74834187       0.00000000
Si      -1.74649977       1.56348162       3.01461530       0.00000000
