10
Lattice="16.28999089631971 0.0 0.0 0.0 16.28999089631971 0.0 0.0 0.0 34.36671206372826" Properties=species:S:1:pos:R:3:initial_magmoms:R:1 pbc="T T T"
Si       0.63148185      -1.82079846       1.29411363       0.00000000
Si      -2.23989129      -0.14348232      -0.65214309       0.00000000
Si      -0.03743442       1.86326553       1.45099776       0.00000000
Si       1.29917637       0.49487391      -1.92113464       0.00000000
Si       0.53871030       3.47466419      -0.17554526       0.00000000
Si      -0.42964875       1.78370354      -3.02210725       0.00000000
Si       2.83669173      -1.17152793       1.87487702       0.00000000
Si      -2.10644361       0.17225046      -2.99358286       0.00000000
Si      -2.86037739      -2.33448732      -0.29493529       0.00000000
Si      -1.15676919      -1.92679749       2.96313394       0.00000000
