10
Lattice="16.28999089631971 0.0 0.0 0.0 16.28999089631971 0.0 0.0 0.0 34.36671206372826" Properties=species:S:1:pos:R:3:initial_magmoms:R:1 pbc="T T T"
Si      -2.20644792      -0.84789450      -0.08835687       0.00000000
Si       0.12233790       0.49418600       2.34467024       0.00000000
Si       1.44678006      -1.79237241      -0.72451943       0.00000000
Si       0.43385157       1.67399854      -1.69458915       0.00000000
Si       0.98171685      -1.62434106       3.02385995       0.00000000
Si       2.41275167       0.68826946      -2.64087710       0.00000000
Si      -2.24696115      -2.31875118      -1.92635839       0.00000000
Si      -2.16145494       0.80365805       2.97385636       0.00000000
Si      -3.63908826       0.96508054      -0.40298429       0.00000000
Si       1.74649977      -1.56348162      -3.01461530       0.00000000
