10
Lattice="16.28999089631971 0.0 0.0 0.0 16.28999089631971 0.0 0.0 0.0 34.36671206372826" Properties=species:S:1:pos:R:3:initial_magmoms:R:1 pbc="T T T"
Si       1.70746893      -1.04659992      -1.25417949       0.00000000
Si       0.30147903       0.26927370       2.35635493       0.00000000
Si      -2.09139884      -1.23838209      -0.22493026       0.00000000
Si      -0.10978808       2.35833588      -0.63052642       0.00000000
Si      -3.31539686       0.74388285       0.23750848       0.00000000
Si       2.05302870      -1.36818081       2.48564257       0.00000000
Si      -2.41187201       2.49075729      -1.14726459       0.00000000
Si       0.57984255      -2.02157271      -3.09499908       0.00000000
Si      -2.58260750       1.53075501       2.34680098       0.00000000
Si       3.81767553       0.19126089      -0.93501566       0.00000000
