10
Lattice="16.28999089631971 0.0 0.0 0.0 16.28999089631971 0.0 0.0 0.0 34.36671206372826" Properties=species:S:1:pos:R:3:initial_magmoms:R:1 pbc="T T T"
Si      -1.35443042      -1.34754138       1.39966417       0.00000000
Si       1.35975888       1.37158542       1.39983601       0.00000000
Si      -1.41787997       1.33871220      -1.50989890       0.00000000
Si       1.26198630      -1.60238214      -1.50604983       0.00000000
Si      -2.69144099      -2.70283680       0.03545959       0.00000000
Si       2.70019782       2.71150308       0.02769615       0.00000000
Si       2.71647153      -2.71011843       0.03269651       0.00000000
Si      -2.72540564       2.71295289       0.02182287       0.00000000
Si       0.00174303      -2.70280422       2.75883403       0.00000000
Si      -2.71425034       0.00900837       2.75855910       0.00000000
