10
Lattice="16.28999089631971 0.0 0.0 0.0 16.28999089631971 0.0 0.0 0.0 34.36671206372826" Properties=species:S:1:pos:R:3:initial_magmoms:R:1 pbc="T T T"
Si      -1.07613369       1.48880826      -1.43927871       0.00000000
Si       1.39473351      -1.39533624      -1.35738278       0.00000000
Si       1.15983171       0.78452640       1.96711733       0.00000000
Si      -2.26169383      -0.91051326       0.76586261       0.00000000
Si       0.82419255      -1.19154834       3.27099112       0.00000000
Si      -2.49319169       0.13807404      -2.80776194       0.00000000
Si      -1.68991808       3.40421971      -0.10499036       0.00000000
Si       0.10155186       2.89084525       2.53499320       0.00000000
Si      -1.09721784      -2.72184723       2.52361781       0.00000000
Si       0.33000282       2.69869914      -2.88415919       0.00000000
