10
Lattice="10.86 0.0 0.0 0.0 10.86 0.0 0.0 0.0 10.86" Properties=species:S:1:pos:R:3:initial_magmoms:R:1 pbc="T T T"
Si       1.31474418      -1.28666022      -1.35091884       0.00000000
Si      -1.40025582      -1.28666022       1.36408116       0.00000000
Si      -1.40025582       1.42833978      -1.35091884       0.00000000
Si       1.62384150       1.20112686       1.37850324       0.00000000
Si       2.67224418      -2.64416022       0.00658116       0.00000000
Si      -0.12105642       2.63478804       2.71483710       0.00000000
Si      -0.04275582      -2.64416022      -2.70841884       0.00000000
Si      -0.04275582      -2.64416022       2.72158116       0.00000000
Si      -2.75775582      -2.64416022       0.00658116       0.00000000
Si       2.79958854      -0.03459996      -2.61575046       0.00000000
