10
Lattice="10.86 0.0 0.0 0.0 10.86 0.0 0.0 0.0 10.86" Properties=species:S:1:pos:R:3:initial_magmoms:R:1 pbc="T T T"
Si      -1.17685476       1.14192900       1.37352936       0.00000000
Si      -1.34191590      -1.31042190      -1.35831450       0.00000000
Si       1.24210164       1.47612378      -1.45261188       0.00000000
Si      -0.01676784       2.69048898      -2.67517638       0.00000000
Si       2.69823216      -0.02451102      -2.67517638       0.00000000
Si       2.69823216       2.69048898       0.03982362       0.00000000
Si      -2.73176784      -0.02451102      -2.67517638       0.00000000
Si      -0.01676784      -2.73951102      -2.67517638       0.00000000
Si      -2.73176784       2.69048898       0.03982362       0.00000000
Si      -0.01676784       2.69048898       2.75482362       0.00000000
