10
Lattice="10.86 0.0 0.0 0.0 10.86 0.0 0.0 0.0 10.86" Properties=species:S:1:pos:R:3:initial_magmoms:R:1 pbc="T T T"
Si      -1.27919940      -1.20644826       1.36424406       0.00000000
Si      -1.27919940       1.50855174      -1.35075594       0.00000000
Si       1.43580060       1.50855174       1.36424406       0.00000000
Si       1.74489792      -1.43366118      -1.33633386       0.00000000
Si      -2.63669940      -2.56394826       0.00674406       0.00000000
Si       0.07830060      -2.56394826       2.72174406       0.00000000
Si      -2.63669940       0.15105174      -2.70825594       0.00000000
Si       0.12105642      -2.63478804      -2.71483710       0.00000000
Si      -2.63669940       0.15105174       2.72174406       0.00000000
Si       0.27571368       2.67499176      -2.73205020       0.00000000
