10
Lattice="16.290000149 0.0 0.0 0.0 16.290000149 0.0 0.0 0.0 29.1751946751" Properties=species:S:1:pos:R:3:initial_magmoms:R:1 pbc="T T T"
Si      -1.34563546      -1.32897079       1.38160010       0.00000000
Si       1.36238158       1.36770841       1.36319055       0.00000000
Si      -1.38550524       1.33990138      -1.37196353       0.00000000
Si       1.38430792      -1.37117818      -1.35132791       0.00000000
Si       2.68441283       0.11297115      -2.62511108       0.00000000
Si      -2.67695201      -2.68915322       0.00312466       0.00000000
Si      -2.60554757      -0.15022638      -2.77017598       0.00000000
Si      -0.04005711       2.80170084      -2.60592255       0.00000000
Si      -2.70027929       0.05942592       2.71149300       0.00000000
Si       0.02379969      -2.67801086       2.74510282       0.00000000
