10
Lattice="16.290000149 0.0 0.0 0.0 16.290000149 0.0 0.0 0.0 29.1751946751" Properties=species:S:1:pos:R:3:initial_magmoms:R:1 pbc="T T T"
Si      -1.41529150       1.36915822       1.20779471       0.00000000
Si      -1.41895675      -1.31209435      -1.30815738       0.00000000
Si       1.34138377       1.44907696      -1.24986534       0.00000000
Si       1.30321630      -1.34692237       1.41665993       0.00000000
Si      -0.03767877      -2.65585646      -2.62929772       0.00000000
Si       2.68781744       0.08449623      -2.59799274       0.00000000
Si      -2.77658166       0.05947479       2.51423075       0.00000000
Si      -0.22742469       2.53586432       2.80895857       0.00000000
Si       2.69260670      -2.67794570       0.10117958       0.00000000
Si      -0.04494411       2.79410970      -2.59408326       0.00000000
