10
Lattice="16.290000149 0.0 0.0 0.0 16.290000149 0.0 0.0 0.0 29.1751946751" Properties=species:S:1:pos:R:3:initial_magmoms:R:1 pbc="T T T"
Si      -0.68818735       2.04995968       0.76689917       0.00000000
Si       2.05627043      -0.61376974       0.89156477       0.00000000
Si      -1.24269895      -1.78664486       0.84208364       0.00000000
Si      -0.63876349      -0.67540458      -2.14746938       0.00000000
Si      -0.69079375      -2.82024537      -1.17027541       0.00000000
H        0.68636287       2.30937794      -2.14023393       0.00000000
Si      -1.30302082       1.53584728       2.94882445       0.00000000
Si      -3.52965207       0.78707742      -0.77206318       0.00000000
Si       1.53288901      -1.86539072       2.82439225       0.00000000
Si       1.07416261       3.53785572       0.43649009       0.00000000
