10
Lattice="16.290000149 0.0 0.0 0.0 16.290000149 0.0 0.0 0.0 29.1751946751" Properties=species:S:1:pos:R:3:initial_magmoms:R:1 pbc="T T T"
Si       1.07388568      -1.41639922      -1.50406881       0.00000000
Si      -1.54826677       1.31572702      -1.19046464       0.00000000
Si      -1.05057469      -1.77152123       1.17640220       0.00000000
Si       2.13894218       0.97446781       0.66563207       0.00000000
Si       0.20663865       0.79951321       3.37688291       0.00000000
Si       2.35662545      -2.71564076      -0.05995503       0.00000000
Si      -0.20971746       2.69413796      -2.50868746       0.00000000
Si      -1.40963887      -0.89160058       3.31132625       0.00000000
Si       2.43517583      -0.10671579      -2.81050485       0.00000000
H        3.05455422      -1.88555123       0.98098675       0.00000000
