10
Lattice="16.290000149 0.0 0.0 0.0 16.290000149 0.0 0.0 0.0 29.1751946751" Properties=species:S:1:pos:R:3:initial_magmoms:R:1 pbc="T T T"
Si      -1.52225164       1.31896710       1.19586205       0.00000000
Si       1.40993209       1.28855367      -1.38036599       0.00000000
Si      -1.23685084      -1.42949801      -1.42780485       0.00000000
Si       0.98135848      -0.84832782       1.99362858       0.00000000
Si      -0.08508267       2.64943658       2.40855820       0.00000000
Si      -0.76846447      -1.17928198       3.48057155       0.00000000
Si       1.11180880      -3.14916817       1.74651468       0.00000000
Si      -2.57540015      -2.80790895      -0.10958203       0.00000000
Si      -2.68581377      -0.11682699       2.70223571       0.00000000
Si       0.06154362       2.62053811      -2.78792325       0.00000000
