10
Lattice="16.290000149 0.0 0.0 0.0 16.290000149 0.0 0.0 0.0 29.1751946751" Properties=species:S:1:pos:R:3:initial_magmoms:R:1 pbc="T T T"
Si       0.43852680      -0.24781977       2.28348851       0.00000000
Si      -1.71831809       1.63064530       0.10406792       0.00000000
Si      -0.04927725      -2.29420217      -0.66688660       0.00000000
Si       1.86978251       0.89684596      -1.27673569       0.00000000
H       -0.92038501       0.16272081      -2.54194719       0.00000000
Si       2.15453171      -2.67548591       0.13767774       0.00000000
Si      -0.32405697       3.36911412      -0.81069113       0.00000000
Si       2.07158303      -1.98320978       2.36751161       0.00000000
Si       3.46353096       1.70974955       0.28495413       0.00000000
Si      -3.77515866       0.62200108      -0.61877670       0.00000000
