10
Lattice="16.290000149 0.0 0.0 0.0 16.290000149 0.0 0.0 0.0 29.1751946751" Properties=species:S:1:pos:R:3:initial_magmoms:R:1 pbc="T T T"
Si      -1.25810929      -1.36884871       1.42572758       0.00000000
Si      -1.45179739       1.41700195      -1.21733500       0.00000000
Si       0.95713525      -1.27070146      -1.75389600       0.00000000
Si       1.38901573       1.37870416       1.34169718       0.00000000
Si       2.34991397       0.16493625      -2.93009398       0.00000000
Si      -2.68512959       0.00669519       2.71941698       0.00000000
Si      -2.06786891      -3.22827078       0.24463838       0.00000000
Si       2.73787661       0.01633887       2.71800198       0.00000000
Si       0.02562417       2.72639216       2.73232408       0.00000000
Si      -0.18730242       2.90053227      -2.54390192       0.00000000
