10
Lattice="16.290000149 0.0 0.0 0.0 16.290000149 0.0 0.0 0.0 29.1751946751" Properties=species:S:1:pos:R:3:initial_magmoms:R:1 pbc="T T T"
Si       1.34688979       1.35685927       1.36274417       0.00000000
Si      -1.35229807       1.36717084      -1.35676325       0.00000000
Si      -1.36037791      -1.34449516       1.37228446       0.00000000
Si       1.37772676      -1.34861653      -1.35116162       0.00000000
Si      -0.05064561      -2.75278197      -2.59374774       0.00000000
Si       2.67791312      -2.69788466       0.06736552       0.00000000
Si      -0.02270826       2.72029970       2.69940571       0.00000000
Si      -2.67263516       0.02627577      -2.75121211       0.00000000
Si       2.69267186      -0.00231318       2.73199440       0.00000000
Si       2.69747741       2.73168641       0.01423749       0.00000000
