10
Lattice="16.290000149 0.0 0.0 0.0 16.290000149 0.0 0.0 0.0 29.1751946751" Properties=species:S:1:pos:R:3:initial_magmoms:R:1 pbc="T T T"
Si      -1.40993209      -1.28855367       1.38036599       0.00000000
Si       1.32377428      -1.39369585      -1.36572004       0.00000000
Si       1.39896892       1.37119447       1.31515943       0.00000000
Si      -1.34838847       1.33198444      -1.40755727       0.00000000
Si       0.00648342       2.72372061       2.62918102       0.00000000
Si      -2.64678293      -2.71805168      -0.04743887       0.00000000
Si       2.59061501      -2.79109605       0.05814616       0.00000000
Si       2.68931612      -0.03456738      -2.74238077       0.00000000
Si      -2.71720460       2.71917569      -0.09683247       0.00000000
Si       2.74015721       2.71942004      -0.05677493       0.00000000
