10
Lattice="16.290000149 0.0 0.0 0.0 16.290000149 0.0 0.0 0.0 29.1751946751" Properties=species:S:1:pos:R:3:initial_magmoms:R:1 pbc="T T T"
Si       1.38100105       1.31844745      -1.36186891       0.00000000
Si      -1.37305153      -1.32641326      -1.36251077       0.00000000
Si       1.35433432      -1.37163430       1.33785773       0.00000000
Si      -1.36951660       1.37813401       1.32192807       0.00000000
Si      -0.05203026       2.63832842      -2.64461470       0.00000000
Si       0.04657311      -2.65632887      -2.66430795       0.00000000
Si       2.72494235      -0.01094688       2.66238239       0.00000000
Si      -2.72787455       0.01757691       2.66988042       0.00000000
Si      -0.01601307       2.73100224       2.68076276       0.00000000
Si      -2.72363915      -2.70124040      -0.01400409       0.00000000
