10
Lattice="16.290000149 0.0 0.0 0.0 16.290000149 0.0 0.0 0.0 29.1751946751" Properties=species:S:1:pos:R:3:initial_magmoms:R:1 pbc="T T T"
Si      -1.34135119       1.35536059       1.34426927       0.00000000
Si       1.39826845      -1.42496776       1.22474550       0.00000000
Si       1.39474981       1.23126337      -1.42736722       0.00000000
Si      -1.50447925      -1.28573713      -1.28484640       0.00000000
H        0.51109875       2.08298603      -2.31560603       0.00000000
Si       2.70684416       0.02156796       2.59486515       0.00000000
Si      -2.55660149       2.77016340      -0.10552668       0.00000000
Si      -2.66286116      -0.04781115       2.68719589       0.00000000
Si       2.42528780      -0.25557381      -2.89972260       0.00000000
Si       0.07183890      -2.80756524       2.60075271       0.00000000
