10
Lattice="16.290000149 0.0 0.0 0.0 16.290000149 0.0 0.0 0.0 29.1751946751" Properties=species:S:1:pos:R:3:initial_magmoms:R:1 pbc="T T T"
Si       1.74982295       0.33095416      -1.48694297       0.00000000
Si      -1.91734931       1.06245499      -0.77833584       0.00000000
Si       0.63876349       0.67540458       2.14746938       0.00000000
Si      -0.05203026      -2.14484079       0.97719397       0.00000000
Si       1.88027327      -1.96988619      -1.73405687       0.00000000
Si      -0.60393547      -1.11124028       2.98955302       0.00000000
H        1.32512635       2.98478252       0.00723545       0.00000000
Si      -0.75378718       2.49824908      -2.28470950       0.00000000
Si      -2.89088859       1.46248200       1.37540620       0.00000000
Si       2.13602627      -2.86161709       0.50589788       0.00000000
