10
Lattice="16.290000149 0.0 0.0 0.0 16.290000149 0.0 0.0 0.0 29.1751946751" Properties=species:S:1:pos:R:3:initial_magmoms:R:1 pbc="T T T"
Si       0.90903088       0.07175745      -1.21634304       0.00000000
H       -1.27231417      -1.75674620      -0.42388640       0.00000000
H        1.89698681       0.42588576       1.24227979       0.00000000
Si      -1.80843437      -2.01432368       0.96167277       0.00000000
Si       0.01785384       1.49363011      -2.80650785       0.00000000
Si       1.17887473       2.94522062       0.25157770       0.00000000
Si       1.24392070      -2.04711545      -2.15277926       0.00000000
Si       2.79344181       1.41488425      -0.82419925       0.00000000
Si      -2.65777868      -0.13952385       2.07730304       0.00000000
H       -2.86845726      -0.91357579      -1.58911450       0.00000000
