10
Lattice="16.290000149 0.0 0.0 0.0 16.290000149 0.0 0.0 0.0 29.1751946751" Properties=species:S:1:pos:R:3:initial_magmoms:R:1 pbc="T T T"
Si       1.36774099       1.35783667       1.32875507       0.00000000
Si       1.37122705      -1.35637057      -1.33269372       0.00000000
Si      -1.34273584       1.38329794      -1.34360524       0.00000000
Si      -1.37502262      -1.33732756       1.36137293       0.00000000
Si      -0.07265340       2.69158043       2.60782478       0.00000000
Si      -0.00187335      -2.70381422      -2.67577380       0.00000000
Si      -2.69068448       0.02150280      -2.69418335       0.00000000
Si      -0.02016702      -2.70293456       2.69829705       0.00000000
Si       2.72147258       0.00840564      -2.68875677       0.00000000
Si       2.72220563       2.70984152      -0.03112993       0.00000000
