10
Lattice="16.290000149 0.0 0.0 0.0 16.290000149 0.0 0.0 0.0 29.1751946751" Properties=species:S:1:pos:R:3:initial_magmoms:R:1 pbc="T T T"
Si      -1.32963868       1.31444011       1.41977000       0.00000000
Si      -1.42654789      -1.35949825      -1.27963571       0.00000000
Si       1.32901966      -1.39562947       1.36920064       0.00000000
Si       1.33529131       1.36476432      -1.40849963       0.00000000
Si       0.01876608      -2.55311543      -2.63703790       0.00000000
Si       2.63314820       2.64850805       0.09774857       0.00000000
Si      -2.60849492       2.68773437       0.03240781       0.00000000
Si      -2.74218695      -0.07594398       2.67579423       0.00000000
Si       2.66603771      -0.07081263       2.77399793       0.00000000
Si       2.71101440      -2.75208150       0.04473141       0.00000000
