10
Lattice="16.290000149 0.0 0.0 0.0 16.290000149 0.0 0.0 0.0 29.1751946751" Properties=species:S:1:pos:R:3:initial_magmoms:R:1 pbc="T T T"
Si       1.24934527      -1.37046142       1.41330478       0.00000000
Si      -1.28736613       1.44896293       1.32814530       0.00000000
Si       1.90785224       0.79022791      -1.12179791       0.00000000
Si      -1.83901070      -0.88143562      -1.18627509       0.00000000
H        0.69527350      -1.82821043      -1.92195971       0.00000000
Si       1.25421598       1.21380049      -3.25316549       0.00000000
Si       2.66906765       0.05857884       2.64885969       0.00000000
Si      -2.71474481       0.05861142       2.60967740       0.00000000
Si       2.74735740      -2.60615893       0.13346485       0.00000000
Si      -3.47206692       0.85395439      -1.27029819       0.00000000
