10
Lattice="16.290000149 0.0 0.0 0.0 16.290000149 0.0 0.0 0.0 29.1751946751" Properties=species:S:1:pos:R:3:initial_magmoms:R:1 pbc="T T T"
H       -0.90903088      -0.07175745       1.21634304       0.00000000
Si      -0.89117704       1.42187266      -1.59016481       0.00000000
Si       0.33488982      -2.11887290      -0.93643622       0.00000000
Si       1.88441093       1.34312680       0.39214379       0.00000000
H        0.98795593       0.35412831       2.45862283       0.00000000
H       -2.18134505      -1.82850365       0.79245664       0.00000000
Si       0.26984385       2.87346317       1.46792074       0.00000000
Si      -0.33927183       0.38827215      -3.60252386       0.00000000
Si      -1.72784774      -2.81370657      -1.83173542       0.00000000
Si       1.56094039      -3.43992675       0.58166586       0.00000000
