10
Lattice="16.290000149 0.0 0.0 0.0 16.290000149 0.0 0.0 0.0 29.1751946751" Properties=species:S:1:pos:R:3:initial_magmoms:R:1 pbc="T T T"
Si       1.39049812       1.35887923      -1.30112616       0.00000000
Si       1.37911141      -1.34804638       1.33304382       0.00000000
Si      -1.31466817       1.36995643       1.39209441       0.00000000
Si      -1.32906853      -1.34666173      -1.41295468       0.00000000
Si       0.01975977       2.71942167      -2.61430167       0.00000000
Si      -2.67396443      -2.69436602      -0.04297506       0.00000000
Si       0.01743030      -2.69172704       2.68233822       0.00000000
Si      -2.66083795       2.73073997       0.03711085       0.00000000
Si       2.71417466       0.00693954      -2.68575172       0.00000000
Si       2.73913095       0.01894527       2.67982916       0.00000000
