10
Lattice="16.290000149 0.0 0.0 0.0 16.290000149 0.0 0.0 0.0 29.1751946751" Properties=species:S:1:pos:R:3:initial_magmoms:R:1 pbc="T T T"
Si       1.32033709       1.34089507       1.39444885       0.00000000
Si      -1.35889715       1.33944526      -1.38089406       0.00000000
Si       1.41908707      -1.38199474      -1.28402658       0.00000000
Si      -1.37415925      -1.36081774       1.36186016       0.00000000
Si       0.03143970      -2.65654064      -2.66194651       0.00000000
Si       2.67577913       2.65541663      -0.00514650       0.00000000
Si       0.12865842       2.53922006      -2.81629029       0.00000000
Si       2.62198955      -2.77905774       0.15746436       0.00000000
Si      -2.86529700      -0.04570974      -2.54842087       0.00000000
Si       2.67263516      -0.02627577       2.75121211       0.00000000
