10
Lattice="16.290000149 0.0 0.0 0.0 16.290000149 0.0 0.0 0.0 29.1751946751" Properties=species:S:1:pos:R:3:initial_magmoms:R:1 pbc="T T T"
Si      -1.68277331       1.67143547       0.25834635       0.00000000
Si       0.35637633      -0.23201847       2.36091510       0.00000000
Si       1.63782919       1.05876856      -1.43425257       0.00000000
Si      -1.07062768      -1.68562406      -1.38620102       0.00000000
H        1.88640319      -1.63427797       0.25960088       0.00000000
H        0.54418374       2.46231497       1.38567587       0.00000000
H       -1.08611947       0.05418054       2.80058529       0.00000000
Si      -2.41344497      -0.27223848      -2.75796033       0.00000000
Si       0.34380045       2.47541213      -2.78675624       0.00000000
Si      -3.54279810       0.83724085      -1.00245969       0.00000000
