10
Lattice="16.290000149 0.0 0.0 0.0 16.290000149 0.0 0.0 0.0 29.1751946751" Properties=species:S:1:pos:R:3:initial_magmoms:R:1 pbc="T T T"
Si      -1.32033709      -1.34089507      -1.39444885       0.00000000
Si       1.35544204       1.31452156      -1.39959536       0.00000000
Si      -1.37881819       1.35915616       1.33578629       0.00000000
Si       1.35229807      -1.36717084       1.35676325       0.00000000
Si       2.69886206       2.68400558      -0.03643982       0.00000000
Si      -2.69449634      -2.70171281      -0.03258869       0.00000000
Si      -0.01798416       2.71314839       2.68904852       0.00000000
Si       0.09874998      -2.72288981      -2.67847543       0.00000000
Si       2.69918786      -0.01031157       2.71950742       0.00000000
Si      -0.01830996       2.66598884      -2.76064445       0.00000000
