10
Lattice="16.290000149 0.0 0.0 0.0 16.290000149 0.0 0.0 0.0 29.1751946751" Properties=species:S:1:pos:R:3:initial_magmoms:R:1 pbc="T T T"
Si      -1.44531397       1.19361718       1.35740219       0.00000000
Si      -1.35839053      -1.34574949      -1.34141710       0.00000000
Si       1.27915597      -1.49511250       1.33821366       0.00000000
Si       1.31144275       1.36642150      -1.48600937       0.00000000
Si       2.16078707      -0.50837832      -2.60163963       0.00000000
Si       0.36256653      -2.10408158      -2.72061608       0.00000000
Si      -0.01876608       2.55311543       2.63703790       0.00000000
Si      -2.80305291       2.43571340      -0.09934154       0.00000000
Si       2.69224832      -0.19896606       2.68176931       0.00000000
Si      -2.79076210      -0.26818227       2.59136121       0.00000000
