10
Lattice="16.290000149 0.0 0.0 0.0 16.290000149 0.0 0.0 0.0 29.1751946751" Properties=species:S:1:pos:R:3:initial_magmoms:R:1 pbc="T T T"
Si      -1.36083403      -1.35399223      -1.35326223       0.00000000
Si      -1.36821340       1.35378046       1.35086986       0.00000000
Si       1.35415513       1.34426710      -1.37613558       0.00000000
Si       1.34757397      -1.36001953       1.36712045       0.00000000
Si       2.68856678       2.69558777       0.01735924       0.00000000
Si       0.01798416      -2.71314839      -2.68904852       0.00000000
Si      -2.69165211      -2.71147052       0.03007963       0.00000000
Si      -0.02225214       2.69172704      -2.73517450       0.00000000
Si       2.71293662      -0.00464265       2.71434341       0.00000000
Si      -0.02884959       2.71573850       2.71743598       0.00000000
