10
Lattice="16.290000149 0.0 0.0 0.0 16.290000149 0.0 0.0 0.0 29.1751946751" Properties=species:S:1:pos:R:3:initial_magmoms:R:1 pbc="T T T"
Si       0.88365106      -0.85172266       0.88823880       0.00000000
H       -1.89698681      -0.42588576      -1.24227979       0.00000000
Si       0.89645500       0.98899849      -2.06647904       0.00000000
Si      -0.98795593      -0.35412831      -2.45862283       0.00000000
Si      -0.71811208       2.51933486      -0.99070209       0.00000000
Si      -1.45051048       2.17465800       1.27113406       0.00000000
Si       1.91418905      -2.33855984      -0.58411657       0.00000000
Si      -0.51109875      -2.08298603       2.31560603       0.00000000
Si       2.78078448       0.44948997       1.52061115       0.00000000
Si       2.82994770      -0.50169942      -1.75173704       0.00000000
