10
Lattice="16.290000149 0.0 0.0 0.0 16.290000149 0.0 0.0 0.0 29.1751946751" Properties=species:S:1:pos:R:3:initial_magmoms:R:1 pbc="T T T"
Si       1.30673494       1.34820277      -1.42196981       0.00000000
Si      -1.34532595      -1.34730356      -1.38958535       0.00000000
Si       1.42509808      -1.36282793       1.29844204       0.00000000
Si      -1.39908295       1.37816008       1.33193516       0.00000000
Si       0.07929972      -2.65389189       2.66961784       0.00000000
Si      -2.67825196      -2.70077451      -0.01557955       0.00000000
Si       2.60156189       2.78385677      -0.10902770       0.00000000
Si       2.67970502      -0.04245174       2.76706299       0.00000000
Si       2.73041580      -0.01202039      -2.72029515       0.00000000
Si       0.00786807      -2.70729051      -2.74941200       0.00000000
