10
Lattice="16.290000149 0.0 0.0 0.0 16.290000149 0.0 0.0 0.0 29.1751946751" Properties=species:S:1:pos:R:3:initial_magmoms:R:1 pbc="T T T"
Si      -2.05627043       0.61376974      -0.89156477       0.00000000
Si       1.02200203      -1.62857159      -1.32026508       0.00000000
Si      -0.52338141      -1.25162098       1.93282747       0.00000000
Si       1.50659695       1.86164239       0.07970663       0.00000000
Si       2.30083220      -0.13151406      -2.54503976       0.00000000
Si      -3.29896938      -1.17287512      -0.04948113       0.00000000
Si       2.55770921      -2.61457272       0.18663372       0.00000000
Si      -2.13794849       0.27871539       3.00860443       0.00000000
Si       0.77582755       3.18815340      -1.71436361       0.00000000
Si       0.88855435       2.93054333       2.12275799       0.00000000
