10
Lattice="16.290000149 0.0 0.0 0.0 16.290000149 0.0 0.0 0.0 29.1751946751" Properties=species:S:1:pos:R:3:initial_magmoms:R:1 pbc="T T T"
Si      -0.97955029       1.85538215      -0.89871270       0.00000000
Si      -1.76234996      -1.48789603       0.33040908       0.00000000
Si       0.38372724       0.64376452       2.22233293       0.00000000
Si       1.75793537      -0.96347206      -1.25928893       0.00000000
H       -0.38779974      -1.22847778      -2.57672402       0.00000000
Si       1.87066217      -1.22108212       2.57783268       0.00000000
Si       2.48870477      -2.28998306       0.53478132       0.00000000
Si      -2.46195659       0.83904904      -2.36861735       0.00000000
Si      -3.58220361      -0.59960233      -0.81649700       0.00000000
Si      -1.07416261      -3.53785572      -0.43649009       0.00000000
