10
Lattice="16.290000149 0.0 0.0 0.0 16.290000149 0.0 0.0 0.0 29.1751946751" Properties=species:S:1:pos:R:3:initial_magmoms:R:1 pbc="T T T"
Si      -1.48978567       1.26506512       1.28490475       0.00000000
Si       1.29533944       1.35909100      -1.44458059       0.00000000
Si      -1.42936606      -1.27182547      -1.40145965       0.00000000
Si       1.28889202      -1.34451145       1.50564427       0.00000000
H        1.46724520       1.31641120       2.93070666       0.00000000
Si      -2.88608304      -0.55146538       2.03987126       0.00000000
Si      -2.78399361      -2.27041877       0.23631908       0.00000000
Si       2.54024796      -2.60192027      -0.10222988       0.00000000
Si       2.60521900       0.35188029       2.64061769       0.00000000
Si       2.65581248       2.76765474      -0.13204693       0.00000000
