10
Lattice="16.290000149 0.0 0.0 0.0 16.290000149 0.0 0.0 0.0 29.1751946751" Properties=species:S:1:pos:R:3:initial_magmoms:R:1 pbc="T T T"
Si      -1.34672689      -1.33288039      -1.38898726       0.00000000
Si      -1.34374582       1.30318372       1.42389538       0.00000000
Si       1.30272760       1.35387820      -1.43455599       0.00000000
Si       1.34846992      -1.38491065       1.36189809       0.00000000
Si       2.69305305       2.64091853      -0.00008753       0.00000000
Si      -2.68991885       2.64813500       0.05852544       0.00000000
Si       2.66324398      -0.10443519      -2.72155844       0.00000000
Si      -2.68830614      -2.75107152      -0.02911684       0.00000000
Si       0.01396053       2.65134413       2.79127840       0.00000000
Si       2.71313862      -0.05525568       2.74089284       0.00000000
