10
Lattice="16.290000149 0.0 0.0 0.0 16.290000149 0.0 0.0 0.0 29.1751946751" Properties=species:S:1:pos:R:3:initial_magmoms:R:1 pbc="T T T"
Si      -1.19698921      -0.36592227      -0.88952251       0.00000000
H        1.40247127      -2.03040191       0.45711695       0.00000000
Si      -0.34762860       1.12099636      -2.52126197       0.00000000
Si       0.07773588       2.93306340      -1.03542766       0.00000000
Si      -1.96740522      -2.48069009       0.28717144       0.00000000
Si       1.99879931       1.17599140       2.18837300       0.00000000
Si      -1.45230238      -1.57112164       2.38028743       0.00000000
Si       0.60453820      -0.56247742       3.10313206       0.00000000
Si      -0.65458108      -2.74838367      -1.62532092       0.00000000
H        3.11485980       0.64246132      -0.73658614       0.00000000
