10
Lattice="16.290000149 0.0 0.0 0.0 16.290000149 0.0 0.0 0.0 29.1751946751" Properties=species:S:1:pos:R:3:initial_magmoms:R:1 pbc="T T T"
Si       1.18149742       0.53698356       1.05188247       0.00000000
Si      -1.29723787      -0.55073233      -0.91995224       0.00000000
Si      -0.06809220      -2.40213971      -1.58488410       0.00000000
Si      -0.35606682       1.80889049       2.24967009       0.00000000
Si       2.85165249       1.32043483      -0.39459451       0.00000000
Si      -3.08413686      -1.13854069       0.52036877       0.00000000
Si       2.32124357      -0.96454720       2.43474031       0.00000000
Si      -2.32303547       0.78350014      -2.53730833       0.00000000
Si      -1.82783576       3.01829268       0.79511158       0.00000000
H       -0.33780573       0.69424723      -3.59791418       0.00000000
