10
Lattice="16.290000149 0.0 0.0 0.0 16.290000149 0.0 0.0 0.0 29.1751946751" Properties=species:S:1:pos:R:3:initial_magmoms:R:1 pbc="T T T"
H       -0.64785331       0.42723783      -0.04183723       0.00000000
Si       1.98472475       0.62090965       1.08843899       0.00000000
H       -1.79571188      -1.20295135       1.08024076       0.00000000
Si       0.75134368      -0.55532611      -2.49760089       0.00000000
Si       0.20453724       2.17245071       1.71033744       0.00000000
Si      -2.51735888      -1.28560681      -0.24224164       0.00000000
Si      -0.91026892      -2.07586730      -1.76579948       0.00000000
Si       2.61136847       0.27886851      -1.23679485       0.00000000
Si       1.22279257      -1.24913350       2.36604994       0.00000000
Si      -0.73453240       1.24616872      -2.62080774       0.00000000
