10
Lattice="16.290000149 0.0 0.0 0.0 16.290000149 0.0 0.0 0.0 29.1751946751" Properties=species:S:1:pos:R:3:initial_magmoms:R:1 pbc="T T T"
Si       0.08294868      -0.69227614      -2.22983387       0.00000000
Si      -0.98873785      -1.78729158       1.15249605       0.00000000
Si       1.83901070       0.88143562       1.18627509       0.00000000
Si      -1.63305622       1.73539001      -0.08402310       0.00000000
H        2.53428419      -0.94677481      -0.73568463       0.00000000
Si      -2.30410649      -0.46411839       2.55336636       0.00000000
Si       0.55164457       2.33039855       2.51442039       0.00000000
Si      -2.12086028      -0.31099239      -3.03439821       0.00000000
Si      -2.07158303       1.98320978      -2.36751161       0.00000000
Si       2.02197998       0.33555771      -3.13096811       0.00000000
