10
Lattice="16.290000149 0.0 0.0 0.0 16.290000149 0.0 0.0 0.0 29.1751946751" Properties=species:S:1:pos:R:3:initial_magmoms:R:1 pbc="T T T"
Si       0.84491344      -1.84467962       1.12470375       0.00000000
Si      -1.72095707       0.75833209       1.37919898       0.00000000
Si      -1.07614999      -0.08760762      -2.09909691       0.00000000
Si       1.79822054       1.59570325       0.11897644       0.00000000
H        2.33434073       1.85328074      -1.26658273       0.00000000
H       -1.15388587      -3.02067102      -1.06366925       0.00000000
H        1.65957635       0.92867662      -2.88373459       0.00000000
Si       2.56095092      -2.28693683      -0.39981687       0.00000000
Si      -0.36256653       2.10408158       2.72061608       0.00000000
Si      -0.61851502       2.12009465      -2.70690374       0.00000000
