10
Lattice="16.290000149 0.0 0.0 0.0 16.290000149 0.0 0.0 0.0 29.1751946751" Properties=species:S:1:pos:R:3:initial_magmoms:R:1 pbc="T T T"
Si       1.25411824      -1.10656505       1.60273932       0.00000000
Si      -1.80960725      -1.32634322      -0.60634807       0.00000000
Si       1.21689559       1.32548473      -1.49219451       0.00000000
Si      -1.33260346       1.54696357       1.15670894       0.00000000
Si      -0.64148392      -1.12296582       2.94150148       0.00000000
H        3.09236331      -0.52574672      -0.77328853       0.00000000
Si      -0.19504017      -2.85667959      -1.68212502       0.00000000
Si       2.75468790       2.04304295       0.11553377       0.00000000
Si      -3.03095001       0.54455842      -1.55769282       0.00000000
Si      -2.54200565      -1.67102007       1.65548807       0.00000000
