10
Lattice="16.290000149 0.0 0.0 0.0 16.290000149 0.0 0.0 0.0 29.1751946751" Properties=species:S:1:pos:R:3:initial_magmoms:R:1 pbc="T T T"
Si       1.29152823       1.41781645       1.30664027       0.00000000
Si      -1.31356045       1.31022100      -1.40358944       0.00000000
Si       1.40476002      -1.30911328      -1.31976911       0.00000000
Si      -1.32840064      -1.30969972       1.44361781       0.00000000
Si       0.00804726      -2.68144805      -2.63128163       0.00000000
Si       2.77410558      -2.54454689       0.12688292       0.00000000
Si      -2.88691383       2.44481951      -0.11150759       0.00000000
Si       2.73225657       0.09539424      -2.65891054       0.00000000
Si      -2.73663858      -2.66453903       0.12087283       0.00000000
Si       2.70379793       0.19929186       2.69552541       0.00000000
