10
Lattice="16.290000149 0.0 0.0 0.0 16.290000149 0.0 0.0 0.0 29.1751946751" Properties=species:S:1:pos:R:3:initial_magmoms:R:1 pbc="T T T"
Si      -1.35985663       1.35667031       1.34057102       0.00000000
Si       1.34873056       1.37331869      -1.33704082       0.00000000
Si       1.38271150      -1.35947545       1.32079024       0.00000000
Si      -1.35524656      -1.37213278      -1.33814948       0.00000000
Si       2.67905342      -0.04644116      -2.62308340       0.00000000
Si      -0.00661374      -2.71206674       2.64280583       0.00000000
Si      -2.72598491      -0.01159034      -2.65132499       0.00000000
Si       0.01324377       2.70411396       2.68365111       0.00000000
Si       2.73191448       0.01376179       2.66955949       0.00000000
Si      -2.70508484       0.00203462       2.70626188       0.00000000
