10
Lattice="16.290000149 0.0 0.0 0.0 16.290000149 0.0 0.0 0.0 29.1751946751" Properties=species:S:1:pos:R:3:initial_magmoms:R:1 pbc="T T T"
Si       1.37360539       1.38183184       1.31192098       0.00000000
Si       1.37121076      -1.34099607      -1.36423210       0.00000000
Si      -1.32366025       1.36611199      -1.39089823       0.00000000
Si      -1.36554184      -1.35912847       1.37666074       0.00000000
Si      -2.67284693      -2.66959633      -0.07600138       0.00000000
Si       2.67315644      -0.00164529       2.68767728       0.00000000
Si      -2.68374494       2.71684622      -0.03486436       0.00000000
Si       2.70339068      -2.70935282       0.00650607       0.00000000
Si      -2.68931612       0.03456738       2.74238077       0.00000000
Si      -2.68237658       0.02265939      -2.75618064       0.00000000
