10
Lattice="16.290000149 0.0 0.0 0.0 16.290000149 0.0 0.0 0.0 29.1751946751" Properties=species:S:1:pos:R:3:initial_magmoms:R:1 pbc="T T T"
Si       1.72509473       0.94030768       1.27560195       0.00000000
Si      -0.86578093      -1.72793244       1.38239191       0.00000000
Si       0.73021555      -0.63402310      -2.17926042       0.00000000
Si      -1.70528609       1.66845440       0.12712916       0.00000000
H       -2.91786483      -0.94998394      -0.67303265       0.00000000
Si       0.46703430       2.34118253       2.64028335       0.00000000
Si      -2.36379305      -0.49223493       2.66223185       0.00000000
Si      -0.84344734      -2.32118004      -2.62228575       0.00000000
Si       2.97619932      -1.13959954      -1.90297133       0.00000000
Si      -2.35892234       2.09202698      -2.00423843       0.00000000
