10
Lattice="16.290000149 0.0 0.0 0.0 16.290000149 0.0 0.0 0.0 29.1751946751" Properties=species:S:1:pos:R:3:initial_magmoms:R:1 pbc="T T T"
Si      -1.37432215      -1.32116788       1.36408623       0.00000000
Si      -1.37342620       1.35114148      -1.34719379       0.00000000
Si       1.28976076      -1.37158543      -1.40924943       0.00000000
Si       1.40882437       1.32489829       1.35746346       0.00000000
Si       0.04533507      -2.69123834       2.61902805       0.00000000
Si       0.04380381       2.69560406       2.70066025       0.00000000
Si      -0.01174509       2.70326036      -2.69596304       0.00000000
Si       2.65629629      -0.01454697      -2.74804076       0.00000000
Si       2.61055397      -2.81092098      -0.13079240       0.00000000
Si      -2.73199593      -2.70402599       0.01423749       0.00000000
