10
Lattice="16.290000149 0.0 0.0 0.0 16.290000149 0.0 0.0 0.0 29.1751946751" Properties=species:S:1:pos:R:3:initial_magmoms:R:1 pbc="T T T"
Si      -1.36230013      -1.39515706      -1.31830159       0.00000000
Si       1.29388213      -1.35314515       1.43200608       0.00000000
Si      -1.35030108       1.32655987       1.40659449       0.00000000
Si       1.37415925       1.36081774      -1.36186016       0.00000000
Si      -2.66141135      -2.68607279       0.15337400       0.00000000
Si      -2.81250111      -0.01060479      -2.54481219       0.00000000
Si       0.06987433      -2.70218685      -2.67060688       0.00000000
Si       2.69449634       2.70171281       0.03258869       0.00000000
Si       2.64999206      -2.74825172       0.14243330       0.00000000
Si      -2.68040549       2.73505844       0.09537371       0.00000000
