10
Lattice="16.290000149 0.0 0.0 0.0 16.290000149 0.0 0.0 0.0 29.1751946751" Properties=species:S:1:pos:R:3:initial_magmoms:R:1 pbc="T T T"
Si       0.45763497       2.20770227      -0.60780683       0.00000000
Si       1.07614999       0.08760762       2.09909691       0.00000000
Si      -0.42536448      -1.81206704      -1.48583431       0.00000000
Si      -2.30882896       0.17804970       0.60042551       0.00000000
H        2.73572633       1.01628424      -0.78463769       0.00000000
H       -0.07773588      -2.93306340       1.03542766       0.00000000
H        1.81434764       2.78405877      -0.33271392       0.00000000
Si      -1.27472509      -3.29898567       0.14590515       0.00000000
Si      -2.08310332       2.03219381       2.03424045       0.00000000
Si      -1.99070318      -0.73653607      -2.84936621       0.00000000
