10
Lattice="16.290000149 0.0 0.0 0.0 16.290000149 0.0 0.0 0.0 29.1751946751" Properties=species:S:1:pos:R:3:initial_magmoms:R:1 pbc="T T T"
Si       1.34544813       1.46179945      -1.23395902       0.00000000
Si       1.38550524      -1.33990138       1.37196353       0.00000000
Si      -1.36051638       1.45831339       1.28700245       0.00000000
Si      -1.22004233      -1.49012776      -1.39821245       0.00000000
Si      -2.67943624      -2.66875814       0.01858752       0.00000000
Si      -2.66324398       0.10443519       2.72155844       0.00000000
Si      -0.01229081       2.70389567      -2.69070275       0.00000000
Si       2.79076210       0.26818227      -2.59136121       0.00000000
Si       0.03986978      -2.66887217       2.75356363       0.00000000
Si       0.02980907       2.74535373       2.72147091       0.00000000
