10
Lattice="16.290000149 0.0 0.0 0.0 16.290000149 0.0 0.0 0.0 29.1751946751" Properties=species:S:1:pos:R:3:initial_magmoms:R:1 pbc="T T T"
Si      -1.35671266      -0.57635650      -0.27509291       0.00000000
H        0.92137870      -1.76777453      -0.45192377       0.00000000
H        1.59614308      -0.84317041       1.16522810       0.00000000
Si       1.06002289      -1.10074789       2.55078727       0.00000000
Si      -2.71783991       0.77512708       1.05019031       0.00000000
Si      -1.81548794      -0.15814332      -2.48867328       0.00000000
Si       2.04964040      -1.82837333      -1.45896396       0.00000000
Si      -1.17814168       2.08994186       2.23770826       0.00000000
Si       0.00465894       1.14375349      -3.12953561       0.00000000
Si      -1.81434764      -2.78405877       0.33271392       0.00000000
