10
Lattice="16.290000149 0.0 0.0 0.0 16.290000149 0.0 0.0 0.0 29.1751946751" Properties=species:S:1:pos:R:3:initial_magmoms:R:1 pbc="T T T"
Si       1.34616977      -1.36078353       1.35498357       0.00000000
Si      -1.31394017      -1.38380130      -1.36408623       0.00000000
Si      -1.37986401       1.34772221       1.34112535       0.00000000
Si       1.32448778       1.38378827      -1.36183974       0.00000000
Si      -2.63080570       0.05086064      -2.64047182       0.00000000
Si       2.68059772      -0.01131829      -2.65141252       0.00000000
Si      -0.00948078       2.71640802       2.66620434       0.00000000
Si       2.66083795      -2.73073997      -0.03711085       0.00000000
Si       2.70149779       0.00230666       2.70617436       0.00000000
Si      -0.02868017      -2.70990506       2.70518240       0.00000000
