10
Lattice="16.290000149 0.0 0.0 0.0 16.290000149 0.0 0.0 0.0 29.1751946751" Properties=species:S:1:pos:R:3:initial_magmoms:R:1 pbc="T T T"
Si       1.25302681      -0.24034266      -1.94735672       0.00000000
Si      -0.33488982       2.11887290       0.93643622       0.00000000
Si      -2.06273756      -0.69483367      -0.89529920       0.00000000
Si       1.22605057      -1.32105385       1.51810208       0.00000000
H        2.56028303      -0.69010957      -1.32399951       0.00000000
H       -2.51623487       0.29036925       1.72889286       0.00000000
H        0.37366002      -3.06626673      -0.23407259       0.00000000
H       -1.24392070       2.04711545       2.15277926       0.00000000
H       -3.19099926      -0.63423487       0.11174100       0.00000000
Si       0.28698093      -2.24733584      -2.81304310       0.00000000
