10
Lattice="16.290000149 0.0 0.0 0.0 16.290000149 0.0 0.0 0.0 29.1751946751" Properties=species:S:1:pos:R:3:initial_magmoms:R:1 pbc="T T T"
Si      -1.39253437      -1.34319196      -1.32963032       0.00000000
Si      -1.35910729       1.35527914       1.35428336       0.00000000
Si       1.32970384      -1.37003788       1.37269291       0.00000000
Si       1.36037791       1.34449516      -1.37228446       0.00000000
Si      -0.03642444      -2.73829853      -2.61920310       0.00000000
Si       2.70726770       2.70135443      -0.00954029       0.00000000
Si      -2.70155643       2.71334387      -0.00991957       0.00000000
Si       2.68956047      -2.72670819       0.03212189       0.00000000
Si       2.70280424      -0.02259423       2.71577300       0.00000000
Si      -0.01115865       2.71707428       2.70486147       0.00000000
