10
Lattice="16.290000149 0.0 0.0 0.0 16.290000149 0.0 0.0 0.0 29.1751946751" Properties=species:S:1:pos:R:3:initial_magmoms:R:1 pbc="T T T"
Si       1.31579218       1.35466012      -1.38582175       0.00000000
Si      -1.38570886       1.47737269       1.21362975       0.00000000
Si       1.59868432      -1.30295566       1.21082893       0.00000000
Si      -1.50426748      -1.34045524      -1.30065935       0.00000000
Si      -1.69266134      -2.39200733       2.10957080       0.00000000
Si      -2.23506947      -0.00954594       2.84536921       0.00000000
Si       2.37009728      -0.11339469      -2.86281598       0.00000000
Si       3.47053566       0.16084746       1.36860838       0.00000000
Si       3.12955338       2.11040210      -0.00285917       0.00000000
H        2.07677954       0.99883765       2.99830558       0.00000000
