10
Lattice="10.86 0.0 0.0 0.0 10.86 0.0 0.0 0.0 10.86" Properties=species:S:1:pos:R:3:initial_magmoms:R:1 pbc="T T T"
Si       1.45954056       1.47963156       1.11110832       0.00000000
Si       1.45954056      -1.23536844      -1.60389168       0.00000000
Si      -1.25545944       1.47963156      -1.60389168       0.00000000
Si       0.27400866      -2.46566526       2.44822410       0.00000000
Si       2.81704056       0.12213156       2.46860832       0.00000000
Si      -2.68792602      -2.65339122      -0.21110754       0.00000000
Si       2.81704056      -2.59286844      -0.24639168       0.00000000
Si       0.18844272       2.85606054       2.56814022       0.00000000
Si       0.10204056      -2.59286844      -2.96139168       0.00000000
Si      -2.61295944       0.12213156      -2.96139168       0.00000000
