10
Lattice="10.86 0.0 0.0 0.0 10.86 0.0 0.0 0.0 10.86" Properties=species:S:1:pos:R:3:initial_magmoms:R:1 pbc="T T T"
Si      -1.08366510      -1.83779436      -0.85060950       0.00000000
Si      -1.41733860       0.38458518       2.15227824       0.00000000
Si       0.31596084       2.01596352      -1.68559146       0.00000000
Si       1.04455824      -1.91675742       1.71570624       0.00000000
Si      -2.85282426       1.86847386       0.52677516       0.00000000
Si      -1.45318746       3.11372490      -1.06237950       0.00000000
Si      -2.85282426      -0.84652614      -2.18822484       0.00000000
Si      -0.13782426       1.86847386       3.24177516       0.00000000
Si      -1.39037322       0.63171534      -3.44323902       0.00000000
Si       1.27565904       3.29759556       1.97231718       0.00000000
