10
Lattice="10.86 0.0 0.0 0.0 10.86 0.0 0.0 0.0 10.86" Properties=species:S:1:pos:R:3:initial_magmoms:R:1 pbc="T T T"
Si       1.27109784       1.33857102       1.25796810       0.00000000
Si       1.27109784      -1.37642898      -1.45703190       0.00000000
Si      -1.44390216       1.33857102      -1.45703190       0.00000000
Si      -0.21049938      -2.48418156       2.39719296       0.00000000
Si       2.62859784      -0.01892898       2.61546810       0.00000000
Si      -0.08640216       2.69607102       2.61546810       0.00000000
Si       2.62859784       2.69607102      -0.09953190       0.00000000
Si       2.62859784      -2.73392898      -0.09953190       0.00000000
Si      -0.18844272      -2.85606054      -2.56814022       0.00000000
Si       2.62859784      -0.01892898      -2.81453190       0.00000000
