10
Lattice="10.86 0.0 0.0 0.0 10.86 0.0 0.0 0.0 10.86" Properties=species:S:1:pos:R:3:initial_magmoms:R:1 pbc="T T T"
Si      -1.22787504       1.27615860      -1.40540346       0.00000000
Si      -1.22787504      -1.43884140       1.30959654       0.00000000
Si       1.48712496       1.27615860       1.30959654       0.00000000
Si      -2.58537504       2.63365860      -0.04790346       0.00000000
Si      -2.58537504      -0.08134140       2.66709654       0.00000000
Si       0.12962496       2.63365860       2.66709654       0.00000000
Si      -2.48436618      -2.82260088      -0.06320520       0.00000000
Si       0.12962496       2.63365860      -2.76290346       0.00000000
Si      -2.56298172      -0.18624900      -2.86795224       0.00000000
Si       0.12962496      -2.79634140       2.66709654       0.00000000
