10
Lattice="10.86 0.0 0.0 0.0 10.86 0.0 0.0 0.0 10.86" Properties=species:S:1:pos:R:3:initial_magmoms:R:1 pbc="T T T"
Si      -1.42840494      -1.18533642       1.15378812       0.00000000
Si       1.28659506       1.52966358       1.15378812       0.00000000
Si       1.28659506      -1.18533642      -1.56121188       0.00000000
Si      -0.07090494      -2.54283642       2.51128812       0.00000000
Si       2.64409506       0.17216358       2.51128812       0.00000000
Si       2.64409506      -2.54283642      -0.20371188       0.00000000
Si      -2.71273026      -2.57552502      -0.21221526       0.00000000
Si      -2.78590494       0.17216358       2.51128812       0.00000000
Si      -0.07090494       2.88716358       2.51128812       0.00000000
Si      -0.03861816      -2.44901688      -2.99078970       0.00000000
