10
Lattice="10.86 0.0 0.0 0.0 10.86 0.0 0.0 0.0 10.86" Properties=species:S:1:pos:R:3:initial_magmoms:R:1 pbc="T T T"
Si      -1.13589084      -1.35837966       1.17814710       0.00000000
Si      -1.13589084       1.35662034      -1.53685290       0.00000000
Si       1.57910916       1.35662034       1.17814710       0.00000000
Si       1.08735750      -1.67975964      -1.40970402       0.00000000
Si      -2.49339084      -0.00087966       2.53564710       0.00000000
Si      -2.49339084       2.71412034      -0.17935290       0.00000000
Si      -2.49339084      -2.71587966      -0.17935290       0.00000000
Si       0.22160916       2.71412034       2.53564710       0.00000000
Si       0.22160916      -2.71587966       2.53564710       0.00000000
Si      -2.49339084      -0.00087966      -2.89435290       0.00000000
