10
Lattice="10.86 0.0 0.0 0.0 10.86 0.0 0.0 0.0 10.86" Properties=species:S:1:pos:R:3:initial_magmoms:R:1 pbc="T T T"
Si       1.26627600       1.34163354       1.36184400       0.00000000
Si       1.26627600      -1.37336646      -1.35315600       0.00000000
Si      -1.44872400      -1.37336646       1.36184400       0.00000000
Si       2.62377600       2.69913354       0.00434400       0.00000000
Si       2.62377600      -0.01586646      -2.71065600       0.00000000
Si       2.62377600      -0.01586646       2.71934400       0.00000000
Si       2.62377600      -2.73086646       0.00434400       0.00000000
Si      -0.12566106      -2.61193860      -2.79936048       0.00000000
Si      -0.09122400       2.69913354       2.71934400       0.00000000
Si      -0.09122400      -2.73086646       2.71934400       0.00000000
