10
Lattice="16.28999089631971 0.0 0.0 0.0 16.28999089631971 0.0 0.0 0.0 34.36671206372826" Properties=species:S:1:pos:R:3:initial_magmoms:R:1 pbc="T T T"
Si      -0.33586722      -1.97568378       1.30383942       0.00000000
Si      -1.16133039      -0.78465672      -1.96718606       0.00000000
Si      -1.05805179       2.10640030       0.56794460       0.00000000
Si       2.34696546       0.36175203      -0.51584464       0.00000000
Si       1.89882756       2.33206241      -1.75634617       0.00000000
Si       0.81922410       3.49375932       0.11055777       0.00000000
Si      -0.14297733      -1.01296107       3.48956353       0.00000000
Si       0.58583727       1.27793421       3.60551688       0.00000000
Si       1.63137834      -3.37530429       1.22297450       0.00000000
Si       0.23509728      -2.17963458      -3.32501562       0.00000000
