10
Lattice="16.28999089631971 0.0 0.0 0.0 16.28999089631971 0.0 0.0 0.0 34.36671206372826" Properties=species:S:1:pos:R:3:initial_magmoms:R:1 pbc="T T T"
Si       0.52139191       2.23678872      -0.41573435       0.00000000
Si      -1.52105222      -0.38942874       1.80105870       0.00000000
Si      -1.30297799      -1.19275380      -1.65585785       0.00000000
Si       2.14169631      -1.02506454       0.65128190       0.00000000
Si       1.37807161       2.58241202       1.82054120       0.00000000
Si       2.50339947       1.75456888      -1.59977134       0.00000000
Si      -2.88959141      -1.94919624       0.64414187       0.00000000
Si      -0.03880883      -1.58809581       3.25871673       0.00000000
Si       1.26879014      -2.96230392       1.72708087       0.00000000
Si       3.64405785      -0.28867509      -1.09423672       0.00000000
