10
Lattice="16.28999089631971 0.0 0.0 0.0 16.28999089631971 0.0 0.0 0.0 34.36671206372826" Properties=species:S:1:pos:R:3:initial_magmoms:R:1 pbc="T T T"
Si      -1.42164526       1.29522116       1.35721095       0.00000000
Si       1.34940496       1.36614782      -1.36212539       0.00000000
Si      -1.36935933      -1.34891367      -1.36453107       0.00000000
Si       1.38504748      -1.37066082       1.36002902       0.00000000
Si      -0.02197521      -2.58198522       2.80466894       0.00000000
Si      -2.75320615      -2.67325809       0.00244004       0.00000000
Si       2.70491215       0.00748037      -2.72346035       0.00000000
Si      -0.00971373      -2.70694581      -2.72318542       0.00000000
Si       2.71230781      -2.71926105      -0.00010310       0.00000000
Si       2.71483276       2.71735445       0.02247584       0.00000000
