10
Lattice="16.28999089631971 0.0 0.0 0.0 16.28999089631971 0.0 0.0 0.0 34.36671206372826" Properties=species:S:1:pos:R:3:initial_magmoms:R:1 pbc="T T T"
Si       1.30103343      -1.36854133      -1.33501004       0.00000000
Si       1.37495745       1.31175078       1.35932451       0.00000000
Si      -1.34962650      -1.39454017       1.34884265       0.00000000
Si      -0.79014645       1.90766179      -1.37624325       0.00000000
Si      -0.57375009      -2.34318832      -2.56705702       0.00000000
Si       2.35191762       0.16142592      -2.74383780       0.00000000
Si      -2.66805765       2.67112522      -0.00311363       0.00000000
Si       0.01182654       2.67330808       2.70990268       0.00000000
Si       2.72888451       2.65851676      -0.01179123       0.00000000
Si      -2.70350469      -0.04011451       2.71175848       0.00000000
