10
Lattice="16.28999089631971 0.0 0.0 0.0 16.28999089631971 0.0 0.0 0.0 34.36671206372826" Properties=species:S:1:pos:R:3:initial_magmoms:R:1 pbc="T T T"
Si       1.46898333      -1.18807368       1.34776010       0.00000000
Si      -1.34423451      -1.36410381      -1.34731333       0.00000000
Si      -1.21469643       1.33784394       1.49313137       0.00000000
Si       1.37111301       1.35542085      -1.34745080       0.00000000
Si       0.64641978       2.25482433       2.80645601       0.00000000
Si       2.35799379       0.65138334       2.77404818       0.00000000
Si      -2.69343747       2.70571524       0.04065584       0.00000000
Si      -2.70335808      -0.00415884      -2.70528035       0.00000000
Si       0.01207089       2.71079772      -2.70483358       0.00000000
Si       0.01167993      -2.71721665      -2.70524599       0.00000000
