10
Lattice="16.28999089631971 0.0 0.0 0.0 16.28999089631971 0.0 0.0 0.0 34.36671206372826" Properties=species:S:1:pos:R:3:initial_magmoms:R:1 pbc="T T T"
Si       2.31666606       0.01963759      -0.44274660       0.00000000
Si       0.44813790      -1.97031038       1.24050153       0.00000000
Si      -1.39463577       0.97425440      -1.69397055       0.00000000
Si      -1.07960346       1.16169691       1.86690394       0.00000000
Si       1.58117256      -1.92090281      -1.83690179       0.00000000
Si      -1.89882756      -2.33206241       1.75634617       0.00000000
Si       0.87443091       1.53844878       3.28707475       0.00000000
Si       0.07988616       2.30222172      -2.97990490       0.00000000
Si      -2.95687935      -0.22566211       2.32429077       0.00000000
Si       3.45113424      -0.34424940       1.58447815       0.00000000
