10
Lattice="16.28999089631971 0.0 0.0 0.0 16.28999089631971 0.0 0.0 0.0 34.36671206372826" Properties=species:S:1:pos:R:3:initial_magmoms:R:1 pbc="T T T"
Si       0.99230535       0.32562733       2.19710435       0.00000000
Si      -0.62356491      -2.28747505       0.61238078       0.00000000
Si       1.04415642      -0.61123175      -2.23431867       0.00000000
Si      -0.68343066       2.42961115      -0.57244664       0.00000000
Si      -2.98551717       0.61541014       1.13701544       0.00000000
Si      -1.53528363       0.68996947      -2.80274440       0.00000000
Si      -2.91028995       1.39156348      -1.06918338       0.00000000
Si       2.67786423      -2.13752560      -1.34559500       0.00000000
Si      -0.88560585       1.08909076       3.57023397       0.00000000
Si      -2.28760470       2.44063948       2.34383998       0.00000000
