10
Lattice="16.28999089631971 0.0 0.0 0.0 16.28999089631971 0.0 0.0 0.0 34.36671206372826" Properties=species:S:1:pos:R:3:initial_magmoms:R:1 pbc="T T T"
Si      -0.92018952      -1.63986543       1.35818972       0.00000000
Si       0.68398452      -1.65089376      -1.55809691       0.00000000
Si       1.79986581       1.10465748       1.13489875       0.00000000
Si      -1.86746931       1.62096903      -0.31890131       0.00000000
Si      -2.29441392      -0.28181700       2.59878060       0.00000000
Si       0.44574327       2.43533871       2.57388190       0.00000000
Si      -1.54287477      -2.68894143      -2.05483364       0.00000000
Si      -2.41113177       1.00525590      -2.68893420       0.00000000
Si       2.53645074       2.82224250      -0.35742642       0.00000000
Si       2.09712573      -0.63956169      -3.13415520       0.00000000
