10
Lattice="16.28999089631971 0.0 0.0 0.0 16.28999089631971 0.0 0.0 0.0 34.36671206372826" Properties=species:S:1:pos:R:3:initial_magmoms:R:1 pbc="T T T"
Si      -1.70971695       1.04721894       1.25335469       0.00000000
Si      -1.12788702      -0.97485876      -1.84075086       0.00000000
Si       0.95858505      -2.05641376       0.68578812       0.00000000
Si       2.10934323       1.23758388       0.31943877       0.00000000
Si       2.17038186       0.51093585       2.53330923       0.00000000
Si       0.64355274      -2.24385628      -2.87508637       0.00000000
Si      -0.91869084      -3.44377279       1.14317495       0.00000000
Si       0.34546203      -0.32158089       3.73992516       0.00000000
Si      -1.81247427       3.40519644       0.62564634       0.00000000
Si      -3.79653830      -0.19202652       1.02804640       0.00000000
