10
Lattice="16.28999089631971 0.0 0.0 0.0 16.28999089631971 0.0 0.0 0.0 34.36671206372826" Properties=species:S:1:pos:R:3:initial_magmoms:R:1 pbc="T T T"
Si       1.35594702       1.35573525       1.35758899       0.00000000
Si      -1.35694071       1.35672894      -1.35679855       0.00000000
Si       1.35666378      -1.35812988      -1.35597375       0.00000000
Si      -1.35775521      -1.35837423       1.35786392       0.00000000
Si       0.00017919       2.71332756      -2.71222243       0.00000000
Si       2.71311579      -0.00159642      -2.71510924       0.00000000
Si      -2.71427238       2.71427238       0.00044677       0.00000000
Si       2.71507059       2.71394658       0.00089354       0.00000000
Si       0.00332316       2.71412577       2.71490304       0.00000000
Si      -2.71531494       0.00013032      -2.71407824       0.00000000
