10
Lattice="16.28999089631971 0.0 0.0 0.0 16.28999089631971 0.0 0.0 0.0 34.36671206372826" Properties=species:S:1:pos:R:3:initial_magmoms:R:1 pbc="T T T"
Si       1.82491983       0.83251674      -1.20661593       0.00000000
Si       1.16589159      -0.06483420       2.08533889       0.00000000
Si      -1.75089807       1.63698210      -0.12897834       0.00000000
Si      -0.94783365      -2.21675786      -0.41401601       0.00000000
Si       2.56715739      -1.35808101      -1.63396624       0.00000000
Si      -3.12965598       0.49612824       1.36920494       0.00000000
Si      -2.93219186      -1.73117414       0.70218105       0.00000000
Si      -2.05517898       1.36879983      -2.48657047       0.00000000
Si       0.61312302      -1.73483287      -3.05413704       0.00000000
Si       2.48692914       2.71018359       0.05763301       0.00000000
