10
Lattice="16.28999089631971 0.0 0.0 0.0 16.28999089631971 0.0 0.0 0.0 34.36671206372826" Properties=species:S:1:pos:R:3:initial_magmoms:R:1 pbc="T T T"
Si       1.95924717      -0.92924676      -1.01942035       0.00000000
Si       1.64377503       0.99544932       1.45986438       0.00000000
Si      -0.90054378       2.06817840      -0.95501710       0.00000000
Si      -1.42601031      -2.01171726       0.71011977       0.00000000
Si      -2.09794023       0.64329210      -2.45533112       0.00000000
Si       0.60391917      -2.06632134      -2.50770601       0.00000000
Si      -1.22614830      -3.00565161      -1.39604536       0.00000000
Si      -3.02971194      -1.29420792      -1.37116384       0.00000000
Si       0.51536673      -2.89738827       2.06238191       0.00000000
Si       2.65344552      -2.33166915       0.86085225       0.00000000
