10
Lattice="16.28999089631971 0.0 0.0 0.0 16.28999089631971 0.0 0.0 0.0 34.36671206372826" Properties=species:S:1:pos:R:3:initial_magmoms:R:1 pbc="T T T"
Si       0.27290637       0.19642482      -2.33515066       0.00000000
Si      -0.77535513      -2.15774082       0.60179583       0.00000000
Si      -1.92515220       1.37034738       0.25496678       0.00000000
Si       2.04711543       0.26950176       1.29830637       0.00000000
Si      -1.17524205       3.04274394       1.69266462       0.00000000
Si      -2.18072601      -1.69600077       2.46605354       0.00000000
Si       3.53633094      -1.21160133       0.19190383       0.00000000
Si      -3.36808782       0.19435599       1.65891649       0.00000000
Si       2.91527469       2.30850477       0.65149012       0.00000000
Si       1.51180974      -1.62618183      -3.11115145       0.00000000
