10
Lattice="16.28999089631971 0.0 0.0 0.0 16.28999089631971 0.0 0.0 0.0 34.36671206372826" Properties=species:S:1:pos:R:3:initial_magmoms:R:1 pbc="T T T"
Si       1.13650443       2.04517692      -0.19623404       0.00000000
Si      -0.26710713      -1.14111450      -2.03901253       0.00000000
Si      -2.14980759       0.68579271       0.69764464       0.00000000
Si       1.54750113      -1.26578187       1.25981563       0.00000000
Si       0.84940947       2.40525108      -2.58592469       0.00000000
Si      -3.37843197       0.43974855      -1.41817753       0.00000000
Si       3.63491802      -0.70819146       0.30084637       0.00000000
Si       0.20302227       3.41876601       1.51316718       0.00000000
Si       1.87742250      -1.27325898      -3.00726082       0.00000000
Si      -1.15981542      -3.25140255      -1.57702056       0.00000000
