10
Lattice="16.28999089631971 0.0 0.0 0.0 16.28999089631971 0.0 0.0 0.0 34.36671206372826" Properties=species:S:1:pos:R:3:initial_magmoms:R:1 pbc="T T T"
Si      -1.35718506      -1.35597960      -1.35776082       0.00000000
Si      -1.35584928       1.35850455       1.35886055       0.00000000
Si       1.36041048      -1.35612621       1.35669545       0.00000000
Si       1.35720135       1.35887922      -1.35734842       0.00000000
Si       0.00377928      -2.70687672       2.71153510       0.00000000
Si       0.00645084       2.70379791       2.72263555       0.00000000
Si       2.71303434      -2.71451673      -0.00061860       0.00000000
Si      -2.71499240      -2.71309950      -0.00130594       0.00000000
Si       0.00014661      -2.71352304      -2.71500614       0.00000000
Si       2.71427238       0.00162900      -2.71521234       0.00000000
