10
Lattice="16.28999089631971 0.0 0.0 0.0 16.28999089631971 0.0 0.0 0.0 34.36671206372826" Properties=species:S:1:pos:R:3:initial_magmoms:R:1 pbc="T T T"
Si       0.47562727       1.25436095      -1.89453479       0.00000000
Si      -0.66633335      -2.25185371      -0.37366947       0.00000000
Si      -1.97888381       0.98573722       0.94628795       0.00000000
Si       1.93652262      -0.25335576       1.46261372       0.00000000
Si      -0.96598790      -2.48064676       1.91632330       0.00000000
Si      -2.41275167      -0.68827435       2.64084273       0.00000000
Si       1.18396534      -2.17802743       2.74528323       0.00000000
Si       0.27816315       3.48166333      -1.22751091       0.00000000
Si      -3.54011741       0.78321668      -0.79744563       0.00000000
Si       2.45998548       0.76877723      -3.01073186       0.00000000
