10
Lattice="16.28999089631971 0.0 0.0 0.0 16.28999089631971 0.0 0.0 0.0 34.36671206372826" Properties=species:S:1:pos:R:3:initial_magmoms:R:1 pbc="T T T"
Si      -0.44813790       1.97031038      -1.24050153       0.00000000
Si       1.66257369       0.23262120       1.74294314       0.00000000
Si      -2.34696546      -0.36175203       0.51584464       0.00000000
Si       1.48309047      -1.55748690      -1.29260150       0.00000000
Si       1.86852816       1.98994797      -1.68324813       0.00000000
Si       1.13303466       0.04940757      -3.07740332       0.00000000
Si       3.00299634       1.62606098       0.34397661       0.00000000
Si      -1.52774136       3.13200729       0.62640241       0.00000000
Si       0.43245063      -3.61411569      -0.39428951       0.00000000
Si       0.45958977       1.49551974       3.34848809       0.00000000
