10
Lattice="16.28999089631971 0.0 0.0 0.0 16.28999089631971 0.0 0.0 0.0 34.36671206372826" Properties=species:S:1:pos:R:3:initial_magmoms:R:1 pbc="T T T"
Si      -1.32756984       1.73390013      -0.85483807       0.00000000
Si       0.17904339       0.26437041       2.34889735       0.00000000
Si      -0.72881460      -2.29089528      -0.11595335       0.00000000
Si       2.22071796       0.57933756      -0.77287342       0.00000000
Si      -1.64388906       0.82846609      -3.03757228       0.00000000
Si       1.77538194       1.96755248       2.52959762       0.00000000
Si       0.80550792      -3.25239624       1.51474805       0.00000000
Si       1.55541807      -1.57999968       2.95244588       0.00000000
Si       3.42324576       0.94311185       1.17413937       0.00000000
Si      -0.58583727      -1.27793421      -3.60551688       0.00000000
