10
Lattice="16.28999089631971 0.0 0.0 0.0 16.28999089631971 0.0 0.0 0.0 34.36671206372826" Properties=species:S:1:pos:R:3:initial_magmoms:R:1 pbc="T T T"
Si       1.57995081      -0.45208008       1.72459131       0.00000000
Si      -1.57835439       1.62276323       0.75111928       0.00000000
Si       1.27151595       1.44541726      -1.41271322       0.00000000
Si      -0.22512780      -2.18556414      -1.05437132       0.00000000
Si       3.22825446       0.13191642      -1.65101214       0.00000000
Si       3.44373858      -1.14937353       0.31699873       0.00000000
Si       0.47640105      -1.71046629      -3.25501059       0.00000000
Si       0.29237292      -1.85779305       3.20755013       0.00000000
Si      -0.43096824       2.84000579       2.45907709       0.00000000
Si      -2.55192624       2.56102325      -1.23984856       0.00000000
