10
Lattice="16.28999089631971 0.0 0.0 0.0 16.28999089631971 0.0 0.0 0.0 34.36671206372826" Properties=species:S:1:pos:R:3:initial_magmoms:R:1 pbc="T T T"
Si      -0.35253189       0.43210854       2.30689952       0.00000000
Si       1.50601050      -1.41156108      -1.38037413       0.00000000
Si       1.11663063       2.21980572      -0.04498605       0.00000000
Si      -2.37317607       0.34950195      -0.75366242       0.00000000
Si      -1.08559818       1.75521492      -2.23662124       0.00000000
Si      -2.18479851       2.06985627       1.91298973       0.00000000
Si       0.38682234      -1.26289854      -3.51148950       0.00000000
Si       0.77818959       1.05792147      -3.64421382       0.00000000
Si      -0.51707718       3.74609957      -0.93370972       0.00000000
Si      -1.22326497      -1.48577832       3.49628364       0.00000000
