10
Lattice="16.28999089631971 0.0 0.0 0.0 16.28999089631971 0.0 0.0 0.0 34.36671206372826" Properties=species:S:1:pos:R:3:initial_magmoms:R:1 pbc="T T T"
Si      -1.34846991       1.35119768      -1.35456471       0.00000000
Si      -1.35338949      -1.35854675       1.35563008       0.00000000
Si       1.36062225       1.35520828       1.35590502       0.00000000
Si       1.36156707      -1.35782999      -1.36497783       0.00000000
Si       0.00545715       2.69796366      -2.72568044       0.00000000
Si      -2.71160082       2.71275498      -0.00398654       0.00000000
Si      -2.71143792      -0.00098358       2.71301287       0.00000000
Si       0.00333945       2.71399302       2.71266920       0.00000000
Si      -2.71096551      -2.71757258      -0.00158087       0.00000000
Si       0.00364896      -2.71595987       2.71363147       0.00000000
