10
Lattice="16.28999089631971 0.0 0.0 0.0 16.28999089631971 0.0 0.0 0.0 34.36671206372826" Properties=species:S:1:pos:R:3:initial_magmoms:R:1 pbc="T T T"
Si       0.72083250       1.91345598       1.10609325       0.00000000
Si       1.27553958      -1.38931708      -1.40852048       0.00000000
Si      -1.80902079      -0.72804897       1.33494131       0.00000000
Si      -1.42983846       1.33175637      -1.42477594       0.00000000
Si       2.48020137      -2.73935151       0.20630349       0.00000000
Si      -2.69803125      -2.56750600      -0.09134677       0.00000000
Si       2.63883339       2.75112036      -0.04086204       0.00000000
Si      -2.73214251       2.67141339       0.02226964       0.00000000
Si       2.63575458      -0.02236617      -2.78617964       0.00000000
Si      -0.08066808       2.68509699      -2.78813854       0.00000000
