10
Lattice="16.28999089631971 0.0 0.0 0.0 16.28999089631971 0.0 0.0 0.0 34.36671206372826" Properties=species:S:1:pos:R:3:initial_magmoms:R:1 pbc="T T T"
Si       2.12618709      -0.65556794       0.68977466       0.00000000
Si      -1.13446818       0.36388700      -2.02722474       0.00000000
Si      -1.34042265      -1.39343978       1.39896653       0.00000000
Si      -0.40392684       2.22701991       0.79761747       0.00000000
Si      -3.00299634      -1.62606098      -0.34397661       0.00000000
Si       0.63568467      -3.45943532      -0.44346830       0.00000000
Si      -2.57670333       1.88269818       1.70259660       0.00000000
Si       1.99537839      -0.96719564       3.03420434       0.00000000
Si       2.84799699      -2.41923737      -0.70455236       0.00000000
Si      -3.45113424       0.34424940      -1.58447815       0.00000000
