10
Lattice="16.28999089631971 0.0 0.0 0.0 16.28999089631971 0.0 0.0 0.0 34.36671206372826" Properties=species:S:1:pos:R:3:initial_magmoms:R:1 pbc="T T T"
Si       0.80497035      -2.16018758      -0.54900853       0.00000000
Si       1.95675480       0.97238268       0.97360950       0.00000000
Si      -0.97010208       0.61017453      -2.10647443       0.00000000
Si      -1.67350428       0.53747226       1.75101932       0.00000000
Si       0.44147529      -3.07947463       1.55341062       0.00000000
Si       1.51456275       0.52258320       3.26820741       0.00000000
Si      -3.29450589       1.00367577      -1.42546328       0.00000000
Si      -0.42520158      -2.86840673      -2.40683966       0.00000000
Si       1.74504996       3.32535915       0.54161968       0.00000000
Si      -3.24055341       1.95867702       0.72661580       0.00000000
