10
Lattice="16.28999089631971 0.0 0.0 0.0 16.28999089631971 0.0 0.0 0.0 34.36671206372826" Properties=species:S:1:pos:R:3:initial_magmoms:R:1 pbc="T T T"
Si      -1.36016613      -1.35353610       1.37859737       0.00000000
Si       1.36441782       1.35640314       1.37179276       0.00000000
Si       1.05326253      -1.66384431      -1.31387107       0.00000000
Si      -1.35913986       1.37619549      -1.43297585       0.00000000
Si      -2.67719634      -2.71987614       0.01670910       0.00000000
Si      -0.79928514      -3.48333957      -1.35642052       0.00000000
Si       2.70352098       2.70629028      -0.00891817       0.00000000
Si      -2.71326240       2.70687672       0.00600730       0.00000000
Si       0.00043983       2.71248048       2.73113444       0.00000000
Si      -2.71298547      -0.00368154       2.73336828       0.00000000
