10
Lattice="16.28999089631971 0.0 0.0 0.0 16.28999089631971 0.0 0.0 0.0 34.36671206372826" Properties=species:S:1:pos:R:3:initial_magmoms:R:1 pbc="T T T"
Si       1.35625653       1.35578412      -1.35813885       0.00000000
Si       1.35663120      -1.35707103       1.35659235       0.00000000
Si      -1.35839052       1.35765747       1.35669545       0.00000000
Si      -1.35830907      -1.35830907      -1.36006339       0.00000000
Si       2.71134018      -0.00016290       2.71328780       0.00000000
Si       2.71293660       0.00302994      -2.71466247       0.00000000
Si      -0.00143352      -2.71413229       2.71400950       0.00000000
Si      -0.00141723       2.71393029       2.71455937       0.00000000
Si       2.71458189       2.71451673      -0.00003437       0.00000000
Si       2.71391400      -2.71585577      -0.00017183       0.00000000
