10
Lattice="16.28999089631971 0.0 0.0 0.0 16.28999089631971 0.0 0.0 0.0 34.36671206372826" Properties=species:S:1:pos:R:3:initial_magmoms:R:1 pbc="T T T"
Si       0.97357185      -0.93826002       1.99096784       0.00000000
Si      -1.97716943       1.02332151       0.93206012       0.00000000
Si       0.83437380       1.72690290      -1.48275262       0.00000000
Si      -0.37812348      -1.97972272      -1.34910040       0.00000000
Si      -1.32591640       2.60304426      -1.98914641       0.00000000
Si      -0.83986353       2.76539040       2.06585295       0.00000000
Si      -1.03928571      -1.53882508       3.02887749       0.00000000
Si       2.55192624      -2.56102325       1.23984856       0.00000000
Si       1.44526509       3.23858232       1.62265958       0.00000000
Si       1.65195261      -2.42711945      -2.61871056       0.00000000
