10
Lattice="16.28999089631971 0.0 0.0 0.0 16.28999089631971 0.0 0.0 0.0 34.36671206372826" Properties=species:S:1:pos:R:3:initial_magmoms:R:1 pbc="T T T"
Si      -1.35477414       1.35791811       1.35700475       0.00000000
Si      -1.35697329      -1.35627282      -1.35786392       0.00000000
Si       1.35747828       1.35928647      -1.35810449       0.00000000
Si       1.35941679      -1.36098063       1.35563008       0.00000000
Si       2.72507265       0.00586440       2.70156875       0.00000000
Si       2.71275741      -2.71409319      -0.00127157       0.00000000
Si       0.00141723      -2.71393029      -2.71455937       0.00000000
Si       2.71531494       2.71402803      -0.00192454       0.00000000
Si      -2.71485882      -2.71471221      -0.00017183       0.00000000
Si      -2.71559187       0.00140094      -2.71407824       0.00000000
