10
Lattice="16.28999089631971 0.0 0.0 0.0 16.28999089631971 0.0 0.0 0.0 34.36671206372826" Properties=species:S:1:pos:R:3:initial_magmoms:R:1 pbc="T T T"
Si       1.51123959       1.51930314      -1.04265226       0.00000000
Si      -0.74293803       0.73215405       2.18091277       0.00000000
Si      -1.52435304       1.43967762      -1.57097202       0.00000000
Si      -1.11490389      -2.16787320      -0.99017426       0.00000000
Si      -0.58332861       3.36100167      -0.61921976       0.00000000
Si      -0.48513249       3.04816851       1.69232095       0.00000000
Si       1.04674653       0.10112832      -3.37773418       0.00000000
Si      -3.34345734      -1.48307418      -0.31761733       0.00000000
Si      -3.66243183       0.87395850      -0.36944236       0.00000000
Si       0.99139311       0.11958489       3.65064040       0.00000000
