10
Lattice="16.28999089631971 0.0 0.0 0.0 16.28999089631971 0.0 0.0 0.0 34.36671206372826" Properties=species:S:1:pos:R:3:initial_magmoms:R:1 pbc="T T T"
Si      -1.56704913       1.42120476      -1.02440353       0.00000000
Si      -1.24150977      -1.42905654       1.40982642       0.00000000
Si       1.11838995       1.04404239       1.81779388       0.00000000
Si       1.67350428      -0.53747226      -1.75101932       0.00000000
Si       3.18806703      -0.01488906       1.51718809       0.00000000
Si      -1.62100161       0.46620351      -3.17648260       0.00000000
Si       0.40591422      -2.10944097       2.93309741       0.00000000
Si       3.63025908       0.43491042      -0.77740983       0.00000000
Si       2.47627548      -2.27615283       1.76555645       0.00000000
Si      -1.98506682      -3.28300678       0.20334795       0.00000000
