10
Lattice="16.28999089631971 0.0 0.0 0.0 16.28999089631971 0.0 0.0 0.0 34.36671206372826" Properties=species:S:1:pos:R:3:initial_magmoms:R:1 pbc="T T T"
Si       0.09819612      -0.31283316       2.31154071       0.00000000
Si      -0.94102443      -1.92132405      -0.95175226       0.00000000
Si      -1.95069492       1.40579442      -0.35274013       0.00000000
Si       2.09456820      -1.84169853      -0.42343250       0.00000000
Si       2.71041165       0.25562268      -1.47412657       0.00000000
Si      -1.63522278      -0.51890166      -2.83202486       0.00000000
Si       1.25553546       3.18653577      -0.05794231       0.00000000
Si       0.58332861      -3.36100167       0.61921976       0.00000000
Si      -1.14070725       1.50977349       3.08754150       0.00000000
Si      -0.90005508       3.46242321      -1.25105212       0.00000000
