10
Lattice="16.28999089631971 0.0 0.0 0.0 16.28999089631971 0.0 0.0 0.0 34.36671206372826" Properties=species:S:1:pos:R:3:initial_magmoms:R:1 pbc="T T T"
Si      -1.35703845       1.35741312      -1.35800139       0.00000000
Si       1.35739683      -1.35738054      -1.35817322       0.00000000
Si      -1.35769005      -1.35842310       1.35700475       0.00000000
Si       1.35946566       1.35881406       1.35693602       0.00000000
Si      -0.00034209       2.71089439       2.71734307       0.00000000
Si       2.71430496      -2.71464705      -0.00061860       0.00000000
Si       2.71474479      -0.00099369       2.71421570       0.00000000
Si       2.71487511       2.71458977      -0.00048113       0.00000000
Si      -0.00364896       2.71595987      -2.71363147       0.00000000
Si      -2.71461447      -0.00161271      -2.71521234       0.00000000
