10
Lattice="16.28999089631971 0.0 0.0 0.0 16.28999089631971 0.0 0.0 0.0 34.36671206372826" Properties=species:S:1:pos:R:3:initial_magmoms:R:1 pbc="T T T"
Si       1.67071869       0.33041007       1.60234885       0.00000000
Si      -1.04484060       2.09647413      -0.38934070       0.00000000
Si      -1.46497599      -1.64628369       0.91370828       0.00000000
Si       0.93126672       0.03047859      -2.23177553       0.00000000
Si      -0.22607262      -3.46889034       0.13770749       0.00000000
Si       2.29096044       2.52271827       1.24589711       0.00000000
Si      -1.22432382       0.30636603      -3.42488534       0.00000000
Si       3.36583980      -1.16683641       0.87566431       0.00000000
Si      -2.27496366      -1.75026276      -2.52657335       0.00000000
Si       1.97659602      -3.13119864       1.03632878       0.00000000
