10
Lattice="16.28999089631971 0.0 0.0 0.0 16.28999089631971 0.0 0.0 0.0 34.36671206372826" Properties=species:S:1:pos:R:3:initial_magmoms:R:1 pbc="T T T"
Si       0.76747077      -1.99598112       0.96701108       0.00000000
Si       0.04057839       1.47079152       1.83813899       0.00000000
Si      -2.19672279      -0.27241767      -0.95900364       0.00000000
Si       1.78843023       0.10666692      -1.66895157       0.00000000
Si       0.69721200      -3.42774180      -0.81706904       0.00000000
Si      -1.70339643      -0.40780386      -3.25700386       0.00000000
Si       1.15654113       1.92665088      -2.96251534       0.00000000
Si       1.77621273      -2.17608336      -2.47199898       0.00000000
Si       2.24702631       2.31866973       1.92646149       0.00000000
Si       2.98758600      -1.65092634       1.66039425       0.00000000
