10
Lattice="16.28999089631971 0.0 0.0 0.0 16.28999089631971 0.0 0.0 0.0 34.36671206372826" Properties=species:S:1:pos:R:3:initial_magmoms:R:1 pbc="T T T"
Si      -0.48782034       1.67961303      -1.54856491       0.00000000
Si       1.17333612      -1.72988397      -1.05285918       0.00000000
Si      -2.13938199      -0.95179212       0.37844644       0.00000000
Si       1.03050540       1.05311592       1.89694047       0.00000000
Si       1.35573525      -2.86467795       1.22929798       0.00000000
Si      -1.16574498      -2.89926162       1.37717802       0.00000000
Si      -0.18472860       3.04937397       1.72163577       0.00000000
Si       0.53825418       3.61712024      -0.63915247       0.00000000
Si      -2.86720290       1.51769043      -1.88539324       0.00000000
Si      -3.25857015      -0.80312958      -1.75266893       0.00000000
