10
Lattice="16.28999089631971 0.0 0.0 0.0 16.28999089631971 0.0 0.0 0.0 34.36671206372826" Properties=species:S:1:pos:R:3:initial_magmoms:R:1 pbc="T T T"
Si       1.34534223       1.34710155       1.36243469       0.00000000
Si       1.35496962      -1.36067438      -1.35937606       0.00000000
Si      -1.36308204       1.35435060      -1.35886055       0.00000000
Si      -1.36021500      -1.36695091       1.37765916       0.00000000
Si       2.65730625      -0.07348419       2.72246372       0.00000000
Si      -2.71642266       2.70746316      -0.00195890       0.00000000
Si      -2.63575458       0.02236617       2.78617964       0.00000000
Si       2.71209597       2.71394658      -0.00408964       0.00000000
Si       2.70959218      -2.71761902       0.00072170       0.00000000
Si      -0.00307881       2.71217097      -2.71528107       0.00000000
