10
Lattice="16.28999089631971 0.0 0.0 0.0 16.28999089631971 0.0 0.0 0.0 34.36671206372826" Properties=species:S:1:pos:R:3:initial_magmoms:R:1 pbc="T T T"
Si      -1.68044382      -1.61310652       0.02697788       0.00000000
Si       1.72791288      -1.28786038       1.09980413       0.00000000
Si      -0.72187506       1.95059881       1.23675556       0.00000000
Si       1.36762695       1.30149118      -1.61836374       0.00000000
Si       2.81009016       0.74608363       1.67716522       0.00000000
Si       0.96699069       1.69064299       2.84714622       0.00000000
Si       0.42844329      -1.78258768       3.02234781       0.00000000
Si      -1.81125252      -1.92473422       2.37140756       0.00000000
Si      -0.95863392      -3.37677595      -1.36734914       0.00000000
Si      -0.24031008       3.83448844      -0.23451857       0.00000000
