10
Lattice="16.28999089631971 0.0 0.0 0.0 16.28999089631971 0.0 0.0 0.0 34.36671206372826" Properties=species:S:1:pos:R:3:initial_magmoms:R:1 pbc="T T T"
Si       1.64643030       0.81770913       1.40047867       0.00000000
Si      -2.08044477       0.91890261       0.70228415       0.00000000
Si       0.48920499       0.73024812      -2.23552150       0.00000000
Si       0.47724813      -2.42403834      -0.00951958       0.00000000
Si      -1.08398547      -2.62655887      -1.75325316       0.00000000
Si       2.73429509       0.07188777      -2.18331844       0.00000000
Si      -0.50855751      -1.01683809      -3.37914322       0.00000000
Si       3.44486163       0.91963566      -0.13323982       0.00000000
Si       1.17620316       3.01047345       2.19823360       0.00000000
Si      -2.52263682       0.46910313       2.99688207       0.00000000
