10
Lattice="16.28999089631971 0.0 0.0 0.0 16.28999089631971 0.0 0.0 0.0 34.36671206372826" Properties=species:S:1:pos:R:3:initial_magmoms:R:1 pbc="T T T"
Si       1.35713293      -1.35785295       1.35679855       0.00000000
Si       1.35682342       1.35822762      -1.35717658       0.00000000
Si      -1.35759063       1.35744570       1.35731405       0.00000000
Si      -1.35809821      -1.35795069      -1.35672982       0.00000000
Si      -0.00130157      -2.71150308      -2.71091650       0.00000000
Si      -0.00161108      -2.71467963       2.71435317       0.00000000
Si       0.00005864       2.71524978       2.71380330       0.00000000
Si       2.71438315      -0.00027693       2.71476557       0.00000000
Si       2.71523023      -2.71448415       0.00024057       0.00000000
Si       0.00066789       2.71349046      -2.71634644       0.00000000
