10
Lattice="16.28999089631971 0.0 0.0 0.0 16.28999089631971 0.0 0.0 0.0 34.36671206372826" Properties=species:S:1:pos:R:3:initial_magmoms:R:1 pbc="T T T"
Si      -1.35384561       1.30082166      -1.40133783       0.00000000
Si      -1.91800089      -0.83766438       1.14695529       0.00000000
Si       1.34226342      -1.42638498      -1.38288290       0.00000000
Si       1.76073723       0.56817891       1.72397271       0.00000000
Si      -0.46985247      -1.21306743       2.91649828       0.00000000
Si       2.47679676       2.39062266       0.08230832       0.00000000
Si      -2.77472457       2.51455698      -0.04776976       0.00000000
Si      -2.63883339      -2.75112036       0.04086204       0.00000000
Si      -0.01093059       2.65854429      -2.74246516       0.00000000
Si       2.70901716      -0.05953995      -2.74940724       0.00000000
