10
Lattice="16.28999089631971 0.0 0.0 0.0 16.28999089631971 0.0 0.0 0.0 34.36671206372826" Properties=species:S:1:pos:R:3:initial_magmoms:R:1 pbc="T T T"
Si      -1.76073723      -0.56817891      -1.72397271       0.00000000
Si       0.71605953       1.82244375      -1.64166439       0.00000000
Si       1.82919337      -1.74166164      -0.49821450       0.00000000
Si       0.25850601       1.08519093       2.63795593       0.00000000
Si      -2.23058970      -1.78124634       1.19252558       0.00000000
Si      -0.41847381      -1.99456389      -3.10685561       0.00000000
Si       2.63592467       2.75279823      -0.63399746       0.00000000
Si       2.28466177       0.73456497      -3.11304162       0.00000000
Si       0.89349021      -3.41514963      -1.74682658       0.00000000
Si       3.46132268      -0.74099952      -1.76930243       0.00000000
