10
Lattice="16.28999089631971 0.0 0.0 0.0 16.28999089631971 0.0 0.0 0.0 34.36671206372826" Properties=species:S:1:pos:R:3:initial_magmoms:R:1 pbc="T T T"
Si       1.35057132      -1.35860229       1.36116313       0.00000000
Si       1.35163017       1.34625447      -1.37862142       0.00000000
Si      -1.36313091       1.35879777       1.35978846       0.00000000
Si      -1.37696112      -1.36345671      -1.38019542       0.00000000
Si      -0.29385531       2.45713473      -2.77241920       0.00000000
Si       2.70824508      -2.71388142      -0.00113410       0.00000000
Si       2.70959715       0.00125433       2.71789294       0.00000000
Si      -2.71606428      -2.71334385       0.00051550       0.00000000
Si       2.70976005       2.72000646       0.00250877       0.00000000
Si      -0.00490329      -2.71461447       2.71847718       0.00000000
