10
Lattice="16.28999089631971 0.0 0.0 0.0 16.28999089631971 0.0 0.0 0.0 34.36671206372826" Properties=species:S:1:pos:R:3:initial_magmoms:R:1 pbc="T T T"
Si      -1.66216644       0.92934450       1.49570888       0.00000000
Si       1.00536993       1.96472061      -1.13207449       0.00000000
Si      -1.87815555      -1.01656116      -1.35167791       0.00000000
Si       2.24533215       0.48457863      -2.65541423       0.00000000
Si      -0.45727659      -2.23029648      -2.70524599       0.00000000
Si      -2.27800989      -1.16797671       2.54640295       0.00000000
Si       0.84864384       1.30246695       3.27690219       0.00000000
Si       0.36518922      -1.06714161       3.45784303       0.00000000
Si      -2.68946271       2.55450006      -0.00041240       0.00000000
Si       3.37336578      -1.14049548      -1.22159983       0.00000000
