10
Lattice="16.28999089631971 0.0 0.0 0.0 16.28999089631971 0.0 0.0 0.0 34.36671206372826" Properties=species:S:1:pos:R:3:initial_magmoms:R:1 pbc="T T T"
Si       0.28020429      -0.33624189      -2.35119992       0.00000000
Si       2.24936622      -0.65946807       0.70413996       0.00000000
Si      -1.41226155      -1.92621105       0.53955768       0.00000000
Si      -1.47424500       1.65789846       1.07969960       0.00000000
Si       1.16606184       2.37685761      -0.65516736       0.00000000
Si       2.35563078       1.09188612      -2.36876132       0.00000000
Si       0.18199188      -3.56148270       0.10083199       0.00000000
Si      -1.72761966       0.56845584      -3.17442060       0.00000000
Si       3.27949370      -0.89363682      -1.43979421       0.00000000
Si      -1.54984689      -1.70564445       2.88419356       0.00000000
