10
Lattice="16.28999089631971 0.0 0.0 0.0 16.28999089631971 0.0 0.0 0.0 34.36671206372826" Properties=species:S:1:pos:R:3:initial_magmoms:R:1 pbc="T T T"
Si      -1.37422440       1.35804843       1.24059089       0.00000000
Si      -0.69791247      -1.82522934      -1.20682454       0.00000000
Si       1.40199885      -1.35154872       1.22639399       0.00000000
Si       0.92018952       1.63986543      -1.35818972       0.00000000
Si       1.60417404      -0.01102833      -2.91628662       0.00000000
Si      -0.62268525      -1.04907600      -3.41302336       0.00000000
Si       0.01086543      -2.70874844       2.57969057       0.00000000
Si      -2.65908023      -2.62122390      -0.23338104       0.00000000
Si      -2.70692070       0.01280394       2.58811042       0.00000000
Si       2.71902906       0.01479132       2.58828225       0.00000000
