10
Lattice="16.28999089631971 0.0 0.0 0.0 16.28999089631971 0.0 0.0 0.0 34.36671206372826" Properties=species:S:1:pos:R:3:initial_magmoms:R:1 pbc="T T T"
Si       0.19986201      -0.99393435      -2.10616513       0.00000000
Si       1.94137704      -0.88567101       1.35226214       0.00000000
Si       1.42601031       2.01171726      -0.71011977       0.00000000
Si      -1.66146597      -1.07509113       1.71029475       0.00000000
Si      -1.60370163       0.71750934      -2.08128361       0.00000000
Si      -1.04117535       0.76802463       3.14417788       0.00000000
Si       1.32001128       0.58041270       3.24092023       0.00000000
Si       2.02992948      -0.05460408      -3.21782578       0.00000000
Si       3.38525748       1.08247050      -1.72954012       0.00000000
Si      -1.96503826       2.75354757       2.21521076       0.00000000
