10
Lattice="16.28999089631971 0.0 0.0 0.0 16.28999089631971 0.0 0.0 0.0 34.36671206372826" Properties=species:S:1:pos:R:3:initial_magmoms:R:1 pbc="T T T"
Si      -1.21523400       1.99625805      -0.17530470       0.00000000
Si      -1.03050540      -1.05311592      -1.89694047       0.00000000
Si       2.42512488      -0.19176588      -0.20345105       0.00000000
Si       0.83851146      -0.94820832       2.09654867       0.00000000
Si       1.98408942      -2.43494775       0.55330437       0.00000000
Si       2.65095315       0.13603779      -2.48622681       0.00000000
Si      -0.49225122       2.56400432      -2.53609293       0.00000000
Si      -2.10276207       2.34337581       1.99199884       0.00000000
Si      -1.51832574       0.62649711      -3.44550538       0.00000000
Si      -3.55926726       1.62645876      -0.18310594       0.00000000
