10
Lattice="16.28999089631971 0.0 0.0 0.0 16.28999089631971 0.0 0.0 0.0 34.36671206372826" Properties=species:S:1:pos:R:3:initial_magmoms:R:1 pbc="T T T"
Si      -1.35594030      -1.35501849       1.35727968       0.00000000
Si       1.35982491      -1.35654975      -1.35889492       0.00000000
Si       1.35829854       1.36029645       1.35693602       0.00000000
Si      -1.35577740       1.36373364      -1.35810449       0.00000000
Si       0.00156640      -2.71259451       2.71476557       0.00000000
Si       2.71598045      -2.71181259       0.00027493       0.00000000
Si      -2.71377696       0.00291591       2.71483430       0.00000000
Si      -2.71190361       2.71710684       0.00017183       0.00000000
Si      -2.71496613      -2.71487511       0.00054987       0.00000000
Si       2.71560578       2.71510317       0.00030930       0.00000000
