10
Lattice="16.28999089631971 0.0 0.0 0.0 16.28999089631971 0.0 0.0 0.0 34.36671206372826" Properties=species:S:1:pos:R:3:initial_magmoms:R:1 pbc="T T T"
Si      -1.35450943       1.35643572       1.35927296       0.00000000
Si       1.35780734       1.35711990      -1.35645488       0.00000000
Si      -1.35764927      -1.35780408      -1.35648925       0.00000000
Si       1.35715574      -1.35681039       1.36023522       0.00000000
Si      -0.02133827      -2.70889668       2.71504050       0.00000000
Si       2.71499240       2.71309950       0.00130594       0.00000000
Si       2.71513901      -0.00042354      -2.71370020       0.00000000
Si      -0.00005864      -2.71524978      -2.71380330       0.00000000
Si      -2.71515597      -0.00022806      -2.71397514       0.00000000
Si      -2.71582386       2.71334385       0.00075607       0.00000000
