10
Lattice="16.28999089631971 0.0 0.0 0.0 16.28999089631971 0.0 0.0 0.0 34.36671206372826" Properties=species:S:1:pos:R:3:initial_magmoms:R:1 pbc="T T T"
Si       1.44293562       1.17599139      -1.40394971       0.00000000
Si      -2.00501067      -0.47874681      -1.11331026       0.00000000
Si      -0.59932539       1.27216755       1.88989529       0.00000000
Si       1.18736181      -1.89035676       0.80713705       0.00000000
Si      -1.73253924      -0.66963303       2.88154732       0.00000000
Si      -3.22325995      -0.91445544       0.94587554       0.00000000
Si       1.49131692       2.37329010       2.23438740       0.00000000
Si      -2.30812358       1.61647299      -2.22421485       0.00000000
Si       2.19284577       2.84838795       0.03374813       0.00000000
Si       2.59273269      -2.35209681      -1.05712065       0.00000000
