10
Lattice="10.86 0.0 0.0 0.0 10.86 0.0 0.0 0.0 10.86" Properties=species:S:1:pos:R:3:initial_magmoms:R:1 pbc="T T T"
Si       1.35750000       1.35750000       1.35750000       0.00000000
Si      -1.35750000      -1.35750000       1.35750000       0.00000000
Si       1.35750000      -1.35750000      -1.35750000       0.00000000
Si      -1.35750000       1.35750000      -1.35750000       0.00000000
Si       0.16311720       2.52661158      -2.52597084       0.00000000
Si      -2.72236308      -0.10942536       2.49193560       0.00000000
Si      -2.58408270       0.07093752      -2.78346144       0.00000000
Si       0.00000000      -2.71500000      -2.71500000       0.00000000
Si       0.00000000      -2.71500000       2.71500000       0.00000000
Si       2.71500000       2.71500000       0.00000000       0.00000000
