10
Lattice="10.86 0.0 0.0 0.0 10.86 0.0 0.0 0.0 10.86" Properties=species:S:1:pos:R:3:initial_magmoms:R:1 pbc="T T T"
Si      -1.22329212      -1.35780408       1.39721502       0.00000000
Si       1.49170788      -1.35780408      -1.31778498       0.00000000
Si       1.49170788       1.35719592       1.39721502       0.00000000
Si      -2.44987482       0.07063344       2.68625358       0.00000000
Si      -2.58079212      -2.71530408       0.03971502       0.00000000
Si       0.13420788      -2.71530408      -2.67528498       0.00000000
Si       0.13420788      -2.71530408       2.75471502       0.00000000
Si       0.01205460       2.76220842      -2.71632492       0.00000000
Si      -2.58815520      -0.10972944      -2.89834938       0.00000000
Si       0.29732508       2.52630750       2.94374418       0.00000000
