10
Lattice="10.86 0.0 0.0 0.0 10.86 0.0 0.0 0.0 10.86" Properties=species:S:1:pos:R:3:initial_magmoms:R:1 pbc="T T T"
Si       1.24497954       1.53949188      -0.96306480       0.00000000
Si      -1.70563902      -1.22861352      -0.93642522       0.00000000
Si      -1.51813026       1.41408060       1.62639360       0.00000000
Si       2.51314518       0.16906848      -2.39855046       0.00000000
Si      -0.20185482      -2.54593152      -2.39855046       0.00000000
Si      -0.20185482       2.88406848      -2.39855046       0.00000000
Si      -2.91685482       0.16906848      -2.39855046       0.00000000
Si       0.21161796      -2.58669996       2.80787472       0.00000000
Si       2.51314518       2.88406848       0.31644954       0.00000000
Si      -2.91685482      -2.54593152       0.31644954       0.00000000
