10
Lattice="10.86 0.0 0.0 0.0 10.86 0.0 0.0 0.0 10.86" Properties=species:S:1:pos:R:3:initial_magmoms:R:1 pbc="T T T"
Si      -1.25996634       1.14847758      -1.24797690       0.00000000
Si       1.45503366       1.14847758       1.46702310       0.00000000
Si       1.45503366      -1.56652242      -1.24797690       0.00000000
Si      -2.52813198       2.51890098       0.18750876       0.00000000
Si       0.09753366       2.50597758      -2.60547690       0.00000000
Si      -2.61746634      -0.20902242      -2.60547690       0.00000000
Si       0.07092666       2.27790672       2.97709524       0.00000000
Si       2.81253366       2.50597758       0.10952310       0.00000000
Si       2.81253366      -0.20902242      -2.60547690       0.00000000
Si      -2.63463600      -2.83585008       0.08929092       0.00000000
