10
Lattice="10.86 0.0 0.0 0.0 10.86 0.0 0.0 0.0 10.86" Properties=species:S:1:pos:R:3:initial_magmoms:R:1 pbc="T T T"
Si       1.28127366       1.25693640       1.31763294       0.00000000
Si      -1.43372634       1.25693640      -1.39736706       0.00000000
Si      -1.43372634      -1.45806360       1.31763294       0.00000000
Si       2.61216666      -0.32863446      -2.60229492       0.00000000
Si       2.63877366       2.61443640      -0.03986706       0.00000000
Si      -0.07622634       2.61443640       2.67513294       0.00000000
Si       2.63877366      -0.10056360       2.67513294       0.00000000
Si      -0.07622634       2.61443640      -2.75486706       0.00000000
Si      -2.79122634       2.61443640      -0.03986706       0.00000000
Si      -2.56090746      -2.86914684      -0.12328272       0.00000000
