10
Lattice="10.86 0.0 0.0 0.0 10.86 0.0 0.0 0.0 10.86" Properties=species:S:1:pos:R:3:initial_magmoms:R:1 pbc="T T T"
Si       1.30129950       1.33770222       1.28504208       0.00000000
Si      -1.41370050      -1.37729778       1.28504208       0.00000000
Si       1.30129950      -1.37729778      -1.42995792       0.00000000
Si      -0.08280750       2.46713136      -2.63488578       0.00000000
Si      -0.15659034      -2.58218220      -2.66767212       0.00000000
Si       2.65879950      -0.01979778       2.64254208       0.00000000
Si      -0.05620050       2.69520222       2.64254208       0.00000000
Si       2.65879950       2.69520222      -0.07245792       0.00000000
Si      -0.05620050      -2.73479778       2.64254208       0.00000000
Si       2.65879950      -2.73479778      -0.07245792       0.00000000
