10
Lattice="10.86 0.0 0.0 0.0 10.86 0.0 0.0 0.0 10.86" Properties=species:S:1:pos:R:3:initial_magmoms:R:1 pbc="T T T"
Si      -1.34033034       1.26932766      -1.33726782       0.00000000
Si       1.37466966      -1.44567234      -1.33726782       0.00000000
Si      -1.34033034      -1.44567234       1.37773218       0.00000000
Si       0.01716966       2.62682766      -2.69476782       0.00000000
Si      -2.69783034      -0.08817234      -2.69476782       0.00000000
Si       2.73216966      -0.08817234      -2.69476782       0.00000000
Si      -2.80220580      -0.18881196       2.62670820       0.00000000
Si      -2.84411454       2.58664566       0.12485742       0.00000000
Si       2.63463600       2.83585008      -0.08929092       0.00000000
Si       2.63177982       0.06444324       2.85501798       0.00000000
