10
Lattice="10.86 0.0 0.0 0.0 10.86 0.0 0.0 0.0 10.86" Properties=species:S:1:pos:R:3:initial_magmoms:R:1 pbc="T T T"
Si       1.54582326      -0.90578916       1.55296914       0.00000000
Si       1.49075220       0.68223606      -1.83980346       0.00000000
Si      -0.88869552       1.64719050       1.83821790       0.00000000
Si       0.29921472      -2.25066984      -2.38341162       0.00000000
Si      -2.41578528      -2.25066984       0.33158838       0.00000000
Si      -2.41578528       0.46433016      -2.38341162       0.00000000
Si       0.72592584       2.65343466      -2.32364904       0.00000000
Si       3.01421472      -2.25066984       0.33158838       0.00000000
Si       0.29921472      -2.25066984       3.04658838       0.00000000
Si      -2.41578528       0.46433016       3.04658838       0.00000000
