10
Lattice="10.86 0.0 0.0 0.0 10.86 0.0 0.0 0.0 10.86" Properties=species:S:1:pos:R:3:initial_magmoms:R:1 pbc="T T T"
Si       1.32490914       1.36587306       1.29582606       0.00000000
Si      -1.39009086      -1.34912694       1.29582606       0.00000000
Si      -1.39009086       1.36587306      -1.41917394       0.00000000
Si       2.61734688       0.05313798      -2.70771294       0.00000000
Si       2.68240914       0.00837306       2.65332606       0.00000000
Si      -0.03259086      -2.70662694       2.65332606       0.00000000
Si      -0.03259086       2.72337306       2.65332606       0.00000000
Si      -2.74759086       0.00837306       2.65332606       0.00000000
Si       2.68240914       2.72337306      -0.06167394       0.00000000
Si      -2.57800110      -2.88126660       0.08745558       0.00000000
