10
Lattice="16.290000149 0.0 0.0 0.0 16.290000149 0.0 0.0 0.0 29.1751946751" Properties=species:S:1:pos:R:3:initial_magmoms:R:1 pbc="T T T"
Si      -1.33475374      -1.36442761       1.36930859       0.00000000
Si       1.35052246      -1.34947990      -1.37257621       0.00000000
Si       1.36076887       1.34543998       1.36744137       0.00000000
Si      -1.36888129       1.34469064      -1.36408623       0.00000000
Si      -2.69749370      -2.70669755      -0.00735215       0.00000000
Si       2.71471223       2.69283476      -0.00659359       0.00000000
Si      -0.00938304       2.73219141       2.67874967       0.00000000
Si       2.72504009      -2.69628824      -0.03608972       0.00000000
Si      -2.75986812      -0.00280188       2.66830495       0.00000000
Si      -0.01858689       2.70979265      -2.72020763       0.00000000
