10
Lattice="16.290000149 0.0 0.0 0.0 16.290000149 0.0 0.0 0.0 29.1751946751" Properties=species:S:1:pos:R:3:initial_magmoms:R:1 pbc="T T T"
Si      -1.37015191       1.38675142       1.31130830       0.00000000
Si      -1.36076887      -1.34543998      -1.36744137       0.00000000
Si       1.35394336       1.34739478      -1.37403497       0.00000000
Si       1.34796493      -1.33371118       1.40671119       0.00000000
Si       0.01352070       2.73632907       2.65173344       0.00000000
Si       2.67169034      -2.72818732       0.04250826       0.00000000
Si      -2.69552261      -2.70986759       0.00186721       0.00000000
Si      -0.06498081      -2.61806041       2.78763150       0.00000000
Si      -0.01024641      -2.69491988      -2.74001758       0.00000000
Si       2.72813519       2.71083521      -0.04204146       0.00000000
