10
Lattice="16.290000149 0.0 0.0 0.0 16.290000149 0.0 0.0 0.0 29.1751946751" Properties=species:S:1:pos:R:3:initial_magmoms:R:1 pbc="T T T"
H        0.44901756       1.28251171      -0.66814113       0.00000000
Si      -0.81335971       0.99118135       1.94312632       0.00000000
Si      -1.87445774      -0.71084674      -1.27486848       0.00000000
Si       2.00406098      -1.36257706      -0.08320766       0.00000000
H        0.97376734      -0.26204094      -2.48140866       0.00000000
H       -0.65379916      -2.68522733      -1.06521553       0.00000000
Si       3.16998679       0.68808961      -0.67896513       0.00000000
Si      -2.31834395       2.29565198       0.64491768       0.00000000
Si       0.79428412      -2.96816835      -1.49178605       0.00000000
Si       2.00336051       0.84870901      -2.69543789       0.00000000
