10
Lattice="16.290000149 0.0 0.0 0.0 16.290000149 0.0 0.0 0.0 29.1751946751" Properties=species:S:1:pos:R:3:initial_magmoms:R:1 pbc="T T T"
Si      -0.41216958       0.26054226      -2.28727370       0.00000000
Si       0.81906121       1.86227282       1.17890572       0.00000000
Si      -1.90614179      -0.82253098       1.14777871       0.00000000
Si       1.64362844      -1.72618616       0.08326921       0.00000000
Si       2.19623411       0.60401692       2.59925923       0.00000000
Si      -0.67438972      -2.18346275       2.61697733       0.00000000
Si      -2.09590400       1.92943649      -2.17509508       0.00000000
Si      -0.46804428      -2.03390426      -2.95804060       0.00000000
Si       1.73239265      -2.41497623      -2.14813720       0.00000000
Si       0.65695942      -3.51344026       1.23650631       0.00000000
