10
Lattice="16.290000149 0.0 0.0 0.0 16.290000149 0.0 0.0 0.0 29.1751946751" Properties=species:S:1:pos:R:3:initial_magmoms:R:1 pbc="T T T"
Si      -0.91549801      -1.83166391       1.17307623       0.00000000
Si       1.55929510       0.77410081       1.59401594       0.00000000
Si       1.14578974       0.12455334      -2.06006050       0.00000000
Si      -1.92873602       1.49835421      -0.31051160       0.00000000
Si      -1.94820257      -0.34549461       2.64350604       0.00000000
H       -2.83224459       0.50637465       1.75605497       0.00000000
H        1.85186351      -2.84480418      -0.13998258       0.00000000
Si      -0.05325201       0.95361661       3.27482808       0.00000000
Si       2.36452610       2.70271791       0.55826735       0.00000000
Si       2.67006134       1.97086196      -1.64116305       0.00000000
