10
Lattice="16.290000149 0.0 0.0 0.0 16.290000149 0.0 0.0 0.0 29.1751946751" Properties=species:S:1:pos:R:3:initial_magmoms:R:1 pbc="T T T"
Si      -2.30843963      -0.08593627       0.36635292       0.00000000
H       -0.90762994       1.56225988      -1.49554965       0.00000000
Si       0.97352299      -0.40276374      -2.15353782       0.00000000
Si       1.02407086       2.15199047       0.39015988       0.00000000
Si       0.05716161      -2.06751053       1.28796814       0.00000000
H       -2.92638450       1.21902958      -0.07162510       0.00000000
Si       2.84613996       1.26653122       1.53557802       0.00000000
Si       2.89302258      -1.46177991      -1.37616476       0.00000000
Si       3.53398521      -0.78366141       0.76949576       0.00000000
Si      -3.15433047      -1.74667898      -1.03391055       0.00000000
