10
Lattice="16.290000149 0.0 0.0 0.0 16.290000149 0.0 0.0 0.0 29.1751946751" Properties=species:S:1:pos:R:3:initial_magmoms:R:1 pbc="T T T"
Si      -0.90559369       0.90205876      -0.80611063       0.00000000
Si       0.90762994      -1.56225988       1.49554965       0.00000000
H       -2.01875456      -0.34323030       1.42392455       0.00000000
Si       1.93170080       0.58973059       1.88570953       0.00000000
Si       1.88115293      -1.96502362      -0.65798817       0.00000000
Si      -1.40080969      -1.64819615       1.86190257       0.00000000
Si      -2.21832335      -0.56389465      -2.08739765       0.00000000
Si       0.44025354       2.21206799      -2.19832174       0.00000000
Si      -2.04936347       2.32694507       0.66026383       0.00000000
Si       3.05167089       2.03137931       0.33498959       0.00000000
