10
Lattice="16.290000149 0.0 0.0 0.0 16.290000149 0.0 0.0 0.0 29.1751946751" Properties=species:S:1:pos:R:3:initial_magmoms:R:1 pbc="T T T"
Si      -1.41294574      -1.28434922       1.38092031       0.00000000
Si       1.32372541      -1.39447614      -1.36420293       0.00000000
Si       1.40017438       1.37005417       1.31437170       0.00000000
Si      -1.34796493       1.33371118      -1.40671119       0.00000000
Si       0.00777033       2.72284094       2.62789731       0.00000000
Si      -2.64303623      -2.71766072      -0.04484227       0.00000000
Si       2.58481577      -2.78638824       0.06684037       0.00000000
Si       2.69017949      -0.03508866      -2.74133047       0.00000000
Si      -2.71811684       2.72046260      -0.09540289       0.00000000
Si       2.74009205       2.71880102      -0.05794194       0.00000000
