10
Lattice="16.290000149 0.0 0.0 0.0 16.290000149 0.0 0.0 0.0 29.1751946751" Properties=species:S:1:pos:R:3:initial_magmoms:R:1 pbc="T T T"
Si       1.41794677      -1.33152832      -1.30205976       0.00000000
Si       1.37336104       1.32528925       1.36452385       0.00000000
Si      -1.35145099      -1.37655388       1.34579338       0.00000000
Si      -1.35176050       1.31870809      -1.40805325       0.00000000
Si       0.10327860      -2.68957676      -2.64749429       0.00000000
Si       0.00371412       2.70457985       2.68604347       0.00000000
Si       2.75322180       2.64326429       0.00180886       0.00000000
Si      -2.72166806      -0.01312974       2.68201730       0.00000000
Si      -2.71526609       2.69218316      -0.05896307       0.00000000
Si       0.01459584       2.66919797      -2.75870138       0.00000000
