10
Lattice="16.290000149 0.0 0.0 0.0 16.290000149 0.0 0.0 0.0 29.1751946751" Properties=species:S:1:pos:R:3:initial_magmoms:R:1 pbc="T T T"
Si       1.74579932       0.32166397      -1.49371162       0.00000000
Si      -1.91949959       1.05901617      -0.77737306       0.00000000
Si       0.64096264       0.67811850       2.14566052       0.00000000
Si      -0.04479750      -2.14578724       0.97929458       0.00000000
Si       1.86235427      -1.98362029      -1.72772585       0.00000000
Si      -0.60253453      -1.10868438       2.98850272       0.00000000
H        1.32388831       2.98649134       0.00939441       0.00000000
Si      -0.75828322       2.49946920      -2.28138352       0.00000000
Si      -2.89302258       1.46177991       1.37616476       0.00000000
Si       2.14909085      -2.86950307       0.51316250       0.00000000
