10
Lattice="16.290000149 0.0 0.0 0.0 16.290000149 0.0 0.0 0.0 29.1751946751" Properties=species:S:1:pos:R:3:initial_magmoms:R:1 pbc="T T T"
H       -0.15794784       1.38973738       0.61043260       0.00000000
Si       0.85818979      -1.24303615       1.70171617       0.00000000
Si       1.87351292       0.00627979      -1.35477934       0.00000000
Si      -1.88380820      -0.53799029      -1.30789480       0.00000000
Si      -2.59882517       1.65589969      -0.90107589       0.00000000
Si       0.66894886       1.13160604      -2.97481955       0.00000000
Si      -0.65363626       2.67581660      -1.80092642       0.00000000
Si       1.89381026       0.61066161       2.65748971       0.00000000
Si       2.35626707      -2.27103290      -1.05768833       0.00000000
Si      -0.97319719      -2.26080278       2.64631853       0.00000000
