10
Lattice="16.290000149 0.0 0.0 0.0 16.290000149 0.0 0.0 0.0 29.1751946751" Properties=species:S:1:pos:R:3:initial_magmoms:R:1 pbc="T T T"
Si       1.44189307      -1.18556992      -1.36082444       0.00000000
Si      -1.35584115      -1.44917470       1.23528941       0.00000000
Si      -1.36049683       1.22693023      -1.45648990       0.00000000
Si       1.41309235       1.37565793       1.27732795       0.00000000
Si       0.07714944      -2.51993270      -2.70498401       0.00000000
Si      -2.71617833      -0.01536147       2.54566411       0.00000000
Si      -2.56130653       2.73195048      -0.11084240       0.00000000
Si       0.08185725       2.69944635       2.68811783       0.00000000
Si       2.74206315      -0.01845657       2.64828202       0.00000000
Si       2.71808426      -2.67524156      -0.01771518       0.00000000
