10
Lattice="16.290000149 0.0 0.0 0.0 16.290000149 0.0 0.0 0.0 29.1751946751" Properties=species:S:1:pos:R:3:initial_magmoms:R:1 pbc="T T T"
Si      -0.22346622       2.13587966       0.91044112       0.00000000
Si      -1.81509698      -0.75556279      -1.38421711       0.00000000
Si       0.34249725      -1.95150944       1.37079652       0.00000000
Si       2.12540519       0.58336120      -1.00310154       0.00000000
H        2.21412053      -0.24428484       1.57143434       0.00000000
H       -1.35496963       2.20090934       1.91412617       0.00000000
H        2.86609521      -0.66569086       1.61251301       0.00000000
H       -1.04629042      -1.10172529       3.00017279       0.00000000
Si       1.95297554      -2.74064591      -0.15214864       0.00000000
H        1.06585471      -1.87230746       2.69359985       0.00000000
