10
Lattice="16.290000149 0.0 0.0 0.0 16.290000149 0.0 0.0 0.0 29.1751946751" Properties=species:S:1:pos:R:3:initial_magmoms:R:1 pbc="T T T"
Si       1.30989520      -1.42763932       1.29718751       0.00000000
Si      -1.35096229      -1.38551338      -1.32359106       0.00000000
Si       1.37559277       1.33079527      -1.35527532       0.00000000
Si      -1.29894832       1.35711991       1.41806034       0.00000000
Si       2.66053169      -0.08480574       2.60922519       0.00000000
Si      -2.66894385       2.69995349       0.06071358       0.00000000
Si       0.00899208       2.68837130      -2.68341771       0.00000000
Si      -2.68958165      -0.02627577      -2.68691873       0.00000000
Si      -2.62964585      -0.04142547       2.76055692       0.00000000
Si       0.03732039      -2.73611729      -2.65748096       0.00000000
