10
Lattice="16.290000149 0.0 0.0 0.0 16.290000149 0.0 0.0 0.0 29.1751946751" Properties=species:S:1:pos:R:3:initial_magmoms:R:1 pbc="T T T"
Si       1.38855147      -1.34995231       1.33012630       0.00000000
Si       1.37483529       1.34895862      -1.35084069       0.00000000
Si      -1.31467423      -1.36603054      -1.39399080       0.00000000
Si      -1.36981797       1.33931494       1.38024928       0.00000000
Si      -2.66190820      -2.72031599      -0.03641064       0.00000000
Si       0.02919331      -2.70109379       2.68379698       0.00000000
Si      -2.70136258       2.70586676       0.00764390       0.00000000
Si       0.02990844       2.70986922      -2.70757477       0.00000000
Si      -2.68262908      -0.00902466      -2.73482440       0.00000000
Si       2.70712924      -2.71267598      -0.06033430       0.00000000
