10
Lattice="16.290000149 0.0 0.0 0.0 16.290000149 0.0 0.0 0.0 29.1751946751" Properties=species:S:1:pos:R:3:initial_magmoms:R:1 pbc="T T T"
H        0.72335746       0.07920198       1.32280333       0.00000000
H       -1.38878767       0.84978415       1.62937627       0.00000000
Si       1.61047828      -0.78913648      -1.52294516       0.00000000
Si      -1.87344776      -1.46403118      -0.15669997       0.00000000
Si      -0.34249725       1.95150944      -1.37079652       0.00000000
H        1.87162328       1.70722460       0.20063781       0.00000000
H        2.52359795       1.28581858       0.24171649       0.00000000
Si      -0.78377707       0.93559987       3.02753913       0.00000000
Si       0.12359223      -1.80214643      -2.99290817       0.00000000
Si      -0.99637786      -3.24379515      -1.44218822       0.00000000
