10
Lattice="16.290000149 0.0 0.0 0.0 16.290000149 0.0 0.0 0.0 29.1751946751" Properties=species:S:1:pos:R:3:initial_magmoms:R:1 pbc="T T T"
Si       1.31952259       1.34355034       1.40009133       0.00000000
Si      -1.35833515       1.34187247      -1.38128792       0.00000000
Si       1.37138995      -1.40235724      -1.32006378       0.00000000
Si      -1.37519041      -1.35573526       1.36761934       0.00000000
Si       2.67647960       2.66256794       0.00678032       0.00000000
Si       2.60314202      -2.76328902       0.14913484       0.00000000
Si       0.13263318       2.56044593      -2.80472525       0.00000000
Si      -0.03676653      -2.67610493      -2.72919067       0.00000000
Si       2.67128309      -0.01949913       2.76163932       0.00000000
Si      -0.05874174       2.70417260       2.73873679       0.00000000
