10
Lattice="16.290000149 0.0 0.0 0.0 16.290000149 0.0 0.0 0.0 29.1751946751" Properties=species:S:1:pos:R:3:initial_magmoms:R:1 pbc="T T T"
Si       1.91949959      -1.05901617       0.77737306       0.00000000
Si      -1.25563321      -1.31904041      -1.46935033       0.00000000
Si       1.16121637       1.44045304      -1.50401046       0.00000000
Si      -0.97352299       0.40276374       2.15353782       0.00000000
H       -1.88115293       1.96502362       0.65798817       0.00000000
Si       0.05054787       2.55475421       2.54369770       0.00000000
Si      -2.60226236      -2.60876859      -0.09753268       0.00000000
Si       3.66529890      -0.73735220      -0.71633855       0.00000000
Si       2.68213223       0.12409396      -2.70188560       0.00000000
Si       2.60136641       2.76981479      -0.29347328       0.00000000
