10
Lattice="16.290000149 0.0 0.0 0.0 16.290000149 0.0 0.0 0.0 29.1751946751" Properties=species:S:1:pos:R:3:initial_magmoms:R:1 pbc="T T T"
Si       1.36041049      -1.35303275       1.35244532       0.00000000
Si      -1.36324495       1.36237995       1.34471390       0.00000000
Si       1.34873056       1.38832992      -1.33657402       0.00000000
Si      -1.35159760      -1.38890333      -1.33330640       0.00000000
Si      -2.78443344      -0.04222042      -2.59627140       0.00000000
Si       0.00094482      -2.71702704       2.69494191       0.00000000
Si      -0.00232947       2.70522983       2.70827497       0.00000000
Si       2.79205716       0.05622982      -2.61832785       0.00000000
Si      -2.72668538       0.01438244       2.69552541       0.00000000
Si       2.71168229      -2.71378533      -0.00694370       0.00000000
