10
Lattice="16.290000149 0.0 0.0 0.0 16.290000149 0.0 0.0 0.0 29.1751946751" Properties=species:S:1:pos:R:3:initial_magmoms:R:1 pbc="T T T"
Si       1.49234320      -1.26382708      -1.28251238       0.00000000
Si      -1.34086249       1.41618745      -1.36986292       0.00000000
Si      -1.39238776      -1.82281844       0.75123209       0.00000000
Si       1.07481421       1.68650372       1.38652195       0.00000000
H        2.95231981       0.05250267       1.63305235       0.00000000
Si      -2.46612683       2.53087958       0.38385804       0.00000000
Si       0.06488307      -2.53400726      -2.68741471       0.00000000
Si      -0.60222502       3.36777834       1.63716605       0.00000000
Si       2.78129272      -2.61223184       0.21799705       0.00000000
Si      -3.14444244      -0.84921400       2.01761059       0.00000000
