10
Lattice="16.290000149 0.0 0.0 0.0 16.290000149 0.0 0.0 0.0 29.1751946751" Properties=species:S:1:pos:R:3:initial_magmoms:R:1 pbc="T T T"
Si       0.60501061       0.08581572       1.39816285       0.00000000
H        2.11214513      -0.77058217      -0.30657295       0.00000000
Si       1.38878767      -0.84978415      -1.62937627       0.00000000
Si      -0.48466008      -2.31381533      -1.78607624       0.00000000
Si      -1.10410363       0.54556839       2.91845307       0.00000000
H       -3.10080153      -0.64376452       0.71175805       0.00000000
Si       1.07813737      -1.94544956       2.45803933       0.00000000
Si       1.04629042       1.10172529      -3.00017279       0.00000000
H       -1.71901856      -2.68589522       1.19682484       0.00000000
Si       2.49663800       1.58443057       1.72399143       0.00000000
