10
Lattice="16.290000149 0.0 0.0 0.0 16.290000149 0.0 0.0 0.0 29.1751946751" Properties=species:S:1:pos:R:3:initial_magmoms:R:1 pbc="T T T"
Si      -1.35479044      -1.35537688       1.33400660       0.00000000
Si      -1.37451763       1.34680834      -1.33648649       0.00000000
Si       1.30741912       1.31354090       1.44603935       0.00000000
Si       1.35311257      -1.38460114      -1.33707000       0.00000000
Si       0.04020372      -2.80621317       2.52750547       0.00000000
Si       2.67387320       2.67292838       0.06891181       0.00000000
Si      -0.01107720       2.69480585      -2.68729801       0.00000000
Si       2.71257824      -0.02060685      -2.67956658       0.00000000
Si      -2.72683199      -0.02226843      -2.68607265       0.00000000
Si      -2.72504009       2.69628824       0.03608972       0.00000000
