10
Lattice="16.290000149 0.0 0.0 0.0 16.290000149 0.0 0.0 0.0 29.1751946751" Properties=species:S:1:pos:R:3:initial_magmoms:R:1 pbc="T T T"
Si       1.42079752       1.31005810       1.31285459       0.00000000
Si       1.37909512      -1.34697124      -1.32099446       0.00000000
Si      -1.34889346      -1.35817876       1.35270790       0.00000000
Si      -1.36233271       1.39452175      -1.30418955       0.00000000
Si       0.05820417       2.67950954       2.57459423       0.00000000
Si       0.00908982      -2.70790301      -2.64939943       0.00000000
Si       2.73083933       0.04463460      -2.64724046       0.00000000
Si      -2.71687880       0.04227255      -2.66556249       0.00000000
Si       0.01203831       2.73761597      -2.64548995       0.00000000
Si       2.73564488      -2.67678911       0.06605264       0.00000000
