10
Lattice="16.290000149 0.0 0.0 0.0 16.290000149 0.0 0.0 0.0 29.1751946751" Properties=species:S:1:pos:R:3:initial_magmoms:R:1 pbc="T T T"
Si       1.35479044       1.35537688      -1.33400660       0.00000000
Si       1.39499416      -1.45083628       1.19349886       0.00000000
Si      -1.37784079      -1.36554184      -1.33558206       0.00000000
Si      -1.30455208       1.34573320       1.43139340       0.00000000
Si      -0.01956429      -2.77772196       2.43236516       0.00000000
Si       2.66220956       2.66891779       0.11203275       0.00000000
Si      -0.01972719       2.70218522      -2.67049309       0.00000000
Si       2.70790301      -0.02922426      -2.67107660       0.00000000
Si      -2.70500339       2.68723752       0.07139170       0.00000000
Si      -2.64759743      -0.03326418       2.74512324       0.00000000
