10
Lattice="16.290000149 0.0 0.0 0.0 16.290000149 0.0 0.0 0.0 29.1751946751" Properties=species:S:1:pos:R:3:initial_magmoms:R:1 pbc="T T T"
Si       1.37818288       1.34457661      -1.33307300       0.00000000
Si       1.37165059      -1.34705269       1.33966659       0.00000000
Si      -1.34921926       1.37878561       1.34617266       0.00000000
Si      -1.37847610      -1.34257294      -1.35988500       0.00000000
Si      -0.05465295       2.69125952      -2.59603800       0.00000000
Si      -0.00272043      -2.69014691       2.68096699       0.00000000
Si      -2.72497493       0.02223585       2.67784524       0.00000000
Si       2.73072530       0.01645290       2.69517531       0.00000000
Si       2.72675054      -2.70034445      -0.02474057       0.00000000
Si      -0.04282641      -2.78573664      -2.64651108       0.00000000
