10
Lattice="16.290000149 0.0 0.0 0.0 16.290000149 0.0 0.0 0.0 29.1751946751" Properties=species:S:1:pos:R:3:initial_magmoms:R:1 pbc="T T T"
Si      -1.34842105      -1.36143676      -1.35066564       0.00000000
Si       1.34312680      -1.38324907       1.34363442       0.00000000
Si      -1.38828268       1.35060391       1.33388990       0.00000000
Si       1.34780203       1.34833960      -1.37814867       0.00000000
Si       2.71052570      -0.02560788       2.67308969       0.00000000
Si      -0.03732039       2.73611729       2.65748096       0.00000000
Si      -2.69097445      -0.00452862      -2.71559795       0.00000000
Si       2.71309952       2.70309746      -0.03060478       0.00000000
Si       0.00962739      -2.71661816      -2.70562003       0.00000000
Si      -0.03157002      -2.72005535       2.70573673       0.00000000
