10
Lattice="16.290000149 0.0 0.0 0.0 16.290000149 0.0 0.0 0.0 29.1751946751" Properties=species:S:1:pos:R:3:initial_magmoms:R:1 pbc="T T T"
Si       1.35946567       1.36399429      -1.34249658       0.00000000
Si      -1.35311257       1.38460114       1.33707000       0.00000000
Si       1.38704464      -1.34307793       1.34696039       0.00000000
Si      -1.35907471      -1.36350559      -1.35550872       0.00000000
Si      -2.70790301       0.02922426       2.67107660       0.00000000
Si       0.04968450      -2.79106347       2.60283582       0.00000000
Si       2.69200397       2.71813313       0.04058270       0.00000000
Si      -0.00094482       2.71702704      -2.69494191       0.00000000
Si       2.71073747       0.00324171      -2.70188560       0.00000000
Si      -2.73072530      -0.01645290      -2.69517531       0.00000000
