10
Lattice="16.290000149 0.0 0.0 0.0 16.290000149 0.0 0.0 0.0 29.1751946751" Properties=species:S:1:pos:R:3:initial_magmoms:R:1 pbc="T T T"
Si       2.27417036      -0.47752506       0.13219281       0.00000000
Si      -0.30553524       0.73185595       2.19943040       0.00000000
Si      -0.56632186       1.74627824      -1.51089581       0.00000000
Si      -1.52427160      -1.84630862      -0.41889745       0.00000000
H       -1.37428957       1.82562683       2.24097588       0.00000000
Si       2.54889632      -1.30103344      -2.02093656       0.00000000
Si      -1.11076624      -1.19676115       3.23517899       0.00000000
Si      -3.04870611      -0.84142738      -1.91923183       0.00000000
Si      -1.75845665       0.59763091      -3.20005205       0.00000000
Si      -2.67006134      -1.97086196       1.64116305       0.00000000
