10
Lattice="16.290000149 0.0 0.0 0.0 16.290000149 0.0 0.0 0.0 29.1751946751" Properties=species:S:1:pos:R:3:initial_magmoms:R:1 pbc="T T T"
Si       2.16966512      -0.73270792       0.25262801       0.00000000
Si      -1.57620412      -1.66809276      -0.45469541       0.00000000
Si      -0.69310693       0.66471346       2.18021358       0.00000000
Si      -0.00355122       1.47567853      -1.92661316       0.00000000
H        2.73594625       1.08015733      -0.45218634       0.00000000
H        0.25557381      -1.10253327      -2.83261965       0.00000000
Si      -2.78076819      -0.54276651      -2.07473562       0.00000000
Si      -1.24084189       3.33547527      -1.28026589       0.00000000
Si       1.32432814      -2.19630416      -2.87416513       0.00000000
Si       3.20564071      -1.36220728      -1.74931550       0.00000000
