10
Lattice="16.290000149 0.0 0.0 0.0 16.290000149 0.0 0.0 0.0 29.1751946751" Properties=species:S:1:pos:R:3:initial_magmoms:R:1 pbc="T T T"
Si      -1.49234320       1.26382708       1.28251238       0.00000000
Si       1.29496134       1.35920503      -1.44513492       0.00000000
Si      -1.42746013      -1.27018018      -1.40490232       0.00000000
Si       1.28894952      -1.34840476       1.50050944       0.00000000
H        1.45997660       1.31632975       2.91556473       0.00000000
Si      -2.88473097      -0.55899136       2.03374447       0.00000000
Si      -2.77708665      -2.28973871       0.22704137       0.00000000
Si       2.50691048      -2.63377863      -0.10330936       0.00000000
Si       2.60219232       0.35038161       2.64376862       0.00000000
Si       2.65444575       2.76744297      -0.13026724       0.00000000
