10
Lattice="16.290000149 0.0 0.0 0.0 16.290000149 0.0 0.0 0.0 29.1751946751" Properties=species:S:1:pos:R:3:initial_magmoms:R:1 pbc="T T T"
Si      -0.72335746      -0.07920198      -1.32280333       0.00000000
H       -2.11214513       0.77058217       0.30657295       0.00000000
H        1.14826582       1.62802261      -1.12216551       0.00000000
H        1.80024050       1.20661660      -1.08108684       0.00000000
Si      -1.50713452       0.85639789       1.70473580       0.00000000
Si       0.26191062      -2.67781538       1.44624358       0.00000000
Si       2.25725645      -2.08256249       0.27809796       0.00000000
Si       0.88712083      -0.86833846      -2.84574849       0.00000000
Si       0.38449287       2.35501274       2.03056437       0.00000000
Si      -1.03400776      -1.17486739       2.76461227       0.00000000
