10
Lattice="16.290000149 0.0 0.0 0.0 16.290000149 0.0 0.0 0.0 29.1751946751" Properties=species:S:1:pos:R:3:initial_magmoms:R:1 pbc="T T T"
Si      -1.34519563      -1.31918050      -1.40269084       0.00000000
Si      -1.34197021       1.31712796       1.41222530       0.00000000
Si       1.30877119       1.34296390      -1.42615354       0.00000000
Si       1.35337321      -1.37924173       1.35466264       0.00000000
Si      -2.69376329       2.66043395       0.05085236       0.00000000
Si       2.69928072       2.66132990      -0.02024759       0.00000000
Si       2.66910838      -0.09084933      -2.73652823       0.00000000
Si      -2.68615586      -2.73603584      -0.04326681       0.00000000
Si       2.71666215      -0.03813489       2.72446720       0.00000000
Si       0.01756062       2.66719430       2.77520287       0.00000000
