10
Lattice="16.290000149 0.0 0.0 0.0 16.290000149 0.0 0.0 0.0 29.1751946751" Properties=species:S:1:pos:R:3:initial_magmoms:R:1 pbc="T T T"
H       -0.65197468       0.42140601      -0.04107867       0.00000000
Si       1.97843681       0.62074675       1.08280818       0.00000000
H       -1.80024050      -1.20661660       1.08108684       0.00000000
Si       0.74681506      -0.55105813      -2.49862202       0.00000000
Si       0.19857510       2.16933932       1.71191290       0.00000000
Si      -2.52359795      -1.28581858      -0.24171649       0.00000000
Si      -0.91311967      -2.07495506      -1.76466165       0.00000000
Si       2.61071687       0.28584063      -1.24531401       0.00000000
Si       1.22474737      -1.24967107       2.37118477       0.00000000
Si      -0.74069002       1.24905205      -2.61561455       0.00000000
