10
Lattice="16.290000149 0.0 0.0 0.0 16.290000149 0.0 0.0 0.0 29.1751946751" Properties=species:S:1:pos:R:3:initial_magmoms:R:1 pbc="T T T"
Si       1.30620552      -1.35111431       1.39495358       0.00000000
Si      -1.33695827      -1.31861019      -1.40400665       0.00000000
Si      -1.40727405       1.31787404       1.36421460       0.00000000
Si       1.29726231       1.39176548      -1.41398456       0.00000000
Si      -1.72783959       0.35883287      -3.04715361       0.00000000
Si       2.63744062      -2.67490273      -0.01583630       0.00000000
Si       2.70541879       2.66551318      -0.00485767       0.00000000
Si      -0.04116157       2.71213516       2.68282545       0.00000000
Si      -0.22917587       2.75732362      -2.63759223       0.00000000
Si      -0.10132054      -2.74755613       2.65840581       0.00000000
