10
Lattice="16.290000149 0.0 0.0 0.0 16.290000149 0.0 0.0 0.0 29.1751946751" Properties=species:S:1:pos:R:3:initial_magmoms:R:1 pbc="T T T"
Si       1.31810536      -1.49374476      -1.20453876       0.00000000
Si       1.35936793       1.27976297       1.41336897       0.00000000
Si      -1.34837218      -1.39646088       1.30991373       0.00000000
Si      -1.38295585       1.32449368      -1.36728966       0.00000000
Si       2.69091254       2.62022961       0.08429297       0.00000000
Si      -2.67270032      -0.04427684       2.69267208       0.00000000
Si      -2.71430498       2.65447120       0.01318135       0.00000000
Si       0.02573820       2.70194026       2.69188435       0.00000000
Si       0.03554478      -2.75406949       2.64952196       0.00000000
Si      -2.68506443      -2.71912744      -0.09604182       0.00000000
