10
Lattice="16.290000149 0.0 0.0 0.0 16.290000149 0.0 0.0 0.0 29.1751946751" Properties=species:S:1:pos:R:3:initial_magmoms:R:1 pbc="T T T"
Si       1.33362973      -1.42217729      -1.27851538       0.00000000
Si      -1.34319196      -1.37546734       1.34048349       0.00000000
Si       1.39123117       1.34752510       1.32522487       0.00000000
Si      -1.30274389       1.34682463      -1.42465393       0.00000000
Si       2.66517434      -0.08171064      -2.60759137       0.00000000
Si       0.02226843       2.69369813       2.66565001       0.00000000
Si      -2.67190211       2.69632082      -0.06619852       0.00000000
Si      -2.70288569      -0.01803303       2.67930400       0.00000000
Si      -0.02573820      -2.70194026      -2.69188435       0.00000000
Si       0.03906342      -2.73465120       2.66369527       0.00000000
