10
Lattice="16.290000149 0.0 0.0 0.0 16.290000149 0.0 0.0 0.0 29.1751946751" Properties=species:S:1:pos:R:3:initial_magmoms:R:1 pbc="T T T"
Si      -1.23729067       1.85979674       0.64634726       0.00000000
Si      -1.53225370      -0.69704911      -1.62415391       0.00000000
Si       1.62663796       0.69885730      -1.55748859       0.00000000
Si       0.00355122      -1.47567853       1.92661316       0.00000000
H        0.25912503      -2.57821181      -0.90600650       0.00000000
H        0.04996143       2.43167348       1.55460025       0.00000000
H        1.58721616      -0.40721742      -2.58696451       0.00000000
H        2.73949747      -0.39552120       1.47442681       0.00000000
Si      -2.77721697      -2.01844505      -0.14812246       0.00000000
H       -0.28759995       3.10275633      -2.04287631       0.00000000
