10
Lattice="16.290000149 0.0 0.0 0.0 16.290000149 0.0 0.0 0.0 29.1751946751" Properties=species:S:1:pos:R:3:initial_magmoms:R:1 pbc="T T T"
Si       1.35063649       1.34283358       1.31203768       0.00000000
Si      -1.30989520       1.42763932      -1.29718751       0.00000000
Si       1.43795089      -1.33408585      -1.28157878       0.00000000
Si      -1.37140624      -1.25406937       1.43250206       0.00000000
Si      -2.66085749       0.04212594      -2.62077856       0.00000000
Si       0.07055199      -2.69172704      -2.61103405       0.00000000
Si      -0.01679499      -2.61231329       2.73657491       0.00000000
Si      -2.68195304      -2.68317479       0.10888183       0.00000000
Si      -2.60884352       2.78475924       0.12087283       0.00000000
Si       0.06569757       2.75843460      -2.65246282       0.00000000
