10
Lattice="16.290000149 0.0 0.0 0.0 16.290000149 0.0 0.0 0.0 29.1751946751" Properties=species:S:1:pos:R:3:initial_magmoms:R:1 pbc="T T T"
Si       1.30425886       1.47725866      -1.27708580       0.00000000
Si       1.37233477      -1.35650089       1.35578005       0.00000000
Si      -1.38592063       1.36743148       1.34954239       0.00000000
Si      -1.17151165      -1.45862290      -1.45572551       0.00000000
Si       2.61623918       0.06050106      -2.58092525       0.00000000
Si      -2.52943140      -0.04862565      -2.76741309       0.00000000
Si      -2.66247998      -2.67719636      -0.03228819       0.00000000
Si       0.01537776      -2.67551849       2.74909107       0.00000000
Si       2.71458191       0.01340667       2.71985752       0.00000000
Si      -0.02422323       2.73668745       2.71063816       0.00000000
