10
Lattice="16.290000149 0.0 0.0 0.0 16.290000149 0.0 0.0 0.0 29.1751946751" Properties=species:S:1:pos:R:3:initial_magmoms:R:1 pbc="T T T"
Si      -1.36288657      -1.35070165       1.34976121       0.00000000
Si      -1.38929266       1.34888369      -1.33316052       0.00000000
Si       1.31994613      -1.36840888      -1.38313763       0.00000000
Si       1.36273996       1.34226995       1.37666074       0.00000000
Si      -0.06237441       2.70389567       2.67565710       0.00000000
Si       0.01058850      -2.70322778       2.69479603       0.00000000
Si       2.68990256      -2.71050941      -0.03031303       0.00000000
Si       2.69749370       2.70669755       0.00735215       0.00000000
Si      -0.04624731       2.70475904      -2.69920149       0.00000000
Si       2.69570180      -0.01185912      -2.71481021       0.00000000
