10
Lattice="16.290000149 0.0 0.0 0.0 16.290000149 0.0 0.0 0.0 29.1751946751" Properties=species:S:1:pos:R:3:initial_magmoms:R:1 pbc="T T T"
Si       1.29891574       1.34724817      -1.37372338       0.00000000
Si      -1.25483500       1.40592475       1.36930567       0.00000000
Si      -1.73698643      -0.94499920      -1.25456167       0.00000000
Si       1.44635116      -1.38337939       1.22922097       0.00000000
Si      -3.43187949       0.73036216      -1.13371014       0.00000000
Si      -2.57324987       2.67051746      -0.09930945       0.00000000
Si      -2.59978628      -2.67342360       0.12279839       0.00000000
Si      -2.66735720      -0.00004887       2.62777186       0.00000000
Si       2.81246364       0.01088172       2.54783182       0.00000000
Si       0.15095943      -2.67293001       2.70747849       0.00000000
