10
Lattice="16.290000149 0.0 0.0 0.0 16.290000149 0.0 0.0 0.0 29.1751946751" Properties=species:S:1:pos:R:3:initial_magmoms:R:1 pbc="T T T"
Si       1.23175207      -1.36093177       1.46919862       0.00000000
Si      -1.37138995       1.40235724       1.32006378       0.00000000
Si      -1.40815648      -1.27374769      -1.40912689       0.00000000
Si       1.90614179       0.82253098      -1.14777871       0.00000000
Si       2.56310120      -2.69090929       0.08872760       0.00000000
Si      -2.70541879      -2.66551318       0.00485767       0.00000000
Si       2.66905136       0.03336192       2.72324768       0.00000000
Si       3.54977022      -0.90365518      -1.06450949       0.00000000
Si       2.72520299       2.68480379       0.03112702       0.00000000
Si      -2.74658036       0.04662198       2.68768312       0.00000000
