10
Lattice="16.290000149 0.0 0.0 0.0 16.290000149 0.0 0.0 0.0 29.1751946751" Properties=species:S:1:pos:R:3:initial_magmoms:R:1 pbc="T T T"
Si       1.30406338      -1.38038203       1.37505610       0.00000000
Si      -1.37344249      -1.38274408      -1.31043304       0.00000000
Si      -1.32352993       1.37114560       1.37295549       0.00000000
Si       1.35374788       1.34809525      -1.37324724       0.00000000
Si      -2.68345172       2.69689097      -0.01785522       0.00000000
Si       2.68379219      -0.01920591       2.70859590       0.00000000
Si      -0.00219915      -2.72214047      -2.67583215       0.00000000
Si      -2.69747741      -0.01801674      -2.70308179       0.00000000
Si       2.69629476       2.70948314      -0.01989748       0.00000000
Si      -2.66344760       0.02239875       2.74526912       0.00000000
