10
Lattice="16.290000149 0.0 0.0 0.0 16.290000149 0.0 0.0 0.0 29.1751946751" Properties=species:S:1:pos:R:3:initial_magmoms:R:1 pbc="T T T"
Si      -1.36764325      -1.34469064       1.34287586       0.00000000
Si      -1.38194587       1.34669431      -1.33601969       0.00000000
Si       1.34965909      -1.36528120      -1.35542119       0.00000000
Si       1.36616086       1.36150192       1.35294130       0.00000000
Si       0.00441459       2.70648578      -2.64163883       0.00000000
Si      -0.00104256      -2.70226667       2.67101825       0.00000000
Si       2.71265969      -0.00330687      -2.68478894       0.00000000
Si      -2.70772382      -2.70658352      -0.02310675       0.00000000
Si      -2.69993720       2.71694396       0.05236947       0.00000000
Si      -2.68622102       0.01803303       2.73333646       0.00000000
