10
Lattice="16.290000149 0.0 0.0 0.0 16.290000149 0.0 0.0 0.0 29.1751946751" Properties=species:S:1:pos:R:3:initial_magmoms:R:1 pbc="T T T"
Si       1.81091045       1.32787448       0.59502810       0.00000000
Si      -0.74184661      -0.34172185       2.26195284       0.00000000
Si      -1.21108006       1.87603298      -0.94895238       0.00000000
Si       1.62274465      -1.53002686      -1.07318036       0.00000000
H        0.71923609      -2.52200642       0.99338620       0.00000000
H       -1.16877493      -2.94525320      -0.24612194       0.00000000
Si      -0.26189433      -2.87259980      -1.46345694       0.00000000
Si       0.48832533       2.87208504       1.76892123       0.00000000
Si      -1.45686358       1.85216813       2.66877176       0.00000000
Si      -1.15212655      -1.44935878      -3.05391350       0.00000000
