10
Lattice="16.290000149 0.0 0.0 0.0 16.290000149 0.0 0.0 0.0 29.1751946751" Properties=species:S:1:pos:R:3:initial_magmoms:R:1 pbc="T T T"
Si       1.37575567       1.35654976      -1.33167259       0.00000000
Si       1.36995643      -1.34210053       1.35282460       0.00000000
Si      -1.31994613       1.36840888       1.38313763       0.00000000
Si      -1.36616086      -1.36150192      -1.35294130       0.00000000
Si      -0.01834254      -2.70234812       2.66597094       0.00000000
Si      -0.00649971       2.71573362      -2.65488436       0.00000000
Si       2.72497493      -0.02223585      -2.67784524       0.00000000
Si      -2.68283270       0.01770723       2.73289884       0.00000000
Si      -2.70923879       2.71729257       0.04997711       0.00000000
Si       2.72225450      -2.71238276       0.00312175       0.00000000
