10
Lattice="16.290000149 0.0 0.0 0.0 16.290000149 0.0 0.0 0.0 29.1751946751" Properties=species:S:1:pos:R:3:initial_magmoms:R:1 pbc="T T T"
Si       1.35775522      -1.39242523      -1.29091484       0.00000000
Si       1.39157326       1.34304535       1.33155589       0.00000000
Si      -1.32360324      -1.38330283       1.36399870       0.00000000
Si      -1.29426169       1.35163018      -1.43428175       0.00000000
Si      -2.64367822       2.67805973      -0.02441964       0.00000000
Si       2.68407074      -0.05592357      -2.65276625       0.00000000
Si       0.03352482       2.69822675       2.68651028       0.00000000
Si      -2.63816569      -2.76758958       0.00099196       0.00000000
Si      -2.70386309      -0.03567510       2.70526993       0.00000000
Si      -2.66037417      -0.04263093      -2.75289260       0.00000000
