10
Lattice="16.290000149 0.0 0.0 0.0 16.290000149 0.0 0.0 0.0 29.1751946751" Properties=species:S:1:pos:R:3:initial_magmoms:R:1 pbc="T T T"
Si       1.35584115       1.44917470      -1.23528941       0.00000000
Si       1.38374592      -1.33589404       1.37362360       0.00000000
Si      -1.36033719       1.43381323       1.31037469       0.00000000
Si      -1.22336028      -1.48317193      -1.39853046       0.00000000
Si      -2.68116298      -2.66409920       0.01826075       0.00000000
Si      -0.00465568       2.67610493      -2.69177932       0.00000000
Si      -2.66910838       0.09084933       2.73652823       0.00000000
Si       2.79773422       0.26360478      -2.59611385       0.00000000
Si       0.03700762      -2.66885588       2.75012387       0.00000000
Si       0.03017234       2.75217924       2.71628064       0.00000000
