10
Lattice="16.290000149 0.0 0.0 0.0 16.290000149 0.0 0.0 0.0 29.1751946751" Properties=species:S:1:pos:R:3:initial_magmoms:R:1 pbc="T T T"
Si      -1.33975477      -1.28733355      -1.43016804       0.00000000
Si       1.35066907       1.38494323      -1.35489604       0.00000000
Si      -1.12526434       1.11469213       1.75372095       0.00000000
Si       1.34086249      -1.41618745       1.36986292       0.00000000
Si       0.73863748       1.95159089       3.00702896       0.00000000
Si       2.41567670       0.27031626       2.75638487       0.00000000
Si      -2.78519907      -0.40920480       2.48768132       0.00000000
Si       0.05264928      -2.64012032      -2.74369366       0.00000000
Si       2.73683405       0.03502350      -2.70865425       0.00000000
Si      -0.05152527      -3.23900589       2.12109500       0.00000000
