10
Lattice="16.290000149 0.0 0.0 0.0 16.290000149 0.0 0.0 0.0 29.1751946751" Properties=species:S:1:pos:R:3:initial_magmoms:R:1 pbc="T T T"
Si       0.89050915      -0.75842983      -0.97448068       0.00000000
Si      -1.11143413       1.67659940       0.78812266       0.00000000
Si      -1.93601765      -0.31152996       1.88774013       0.00000000
Si      -1.34631964       2.20314107      -1.51074993       0.00000000
Si       2.28978188      -1.92590156       0.49023080       0.00000000
Si      -0.70358140      -1.88661008      -2.31429314       0.00000000
Si       2.04263570       0.87104260      -2.16436182       0.00000000
Si       0.81331084       2.48318246       1.90093315       0.00000000
Si      -0.50116185      -1.67106080       3.22259864       0.00000000
Si      -3.24322500      -1.75215242       0.51520476       0.00000000
