10
Lattice="16.290000149 0.0 0.0 0.0 16.290000149 0.0 0.0 0.0 29.1751946751" Properties=species:S:1:pos:R:3:initial_magmoms:R:1 pbc="T T T"
Si       0.61794487      -1.30496585       0.43797802       0.00000000
Si      -1.51209157       1.46719144       0.62446587       0.00000000
H        2.01875456       0.34323030      -1.42392455       0.00000000
Si      -0.03060891       2.67017537      -0.76366072       0.00000000
Si       1.11316087       1.24528906      -2.23003518       0.00000000
Si      -2.82533437      -0.23159493      -0.51879331       0.00000000
Si      -1.60737341      -1.51696880      -2.12261211       0.00000000
Si      -0.22538844       1.63010773       2.65573045       0.00000000
Si      -0.22794597      -2.96570856      -0.96228545       0.00000000
Si       2.92638450      -1.21902958       0.07162510       0.00000000
