10
Lattice="16.290000149 0.0 0.0 0.0 16.290000149 0.0 0.0 0.0 29.1751946751" Properties=species:S:1:pos:R:3:initial_magmoms:R:1 pbc="T T T"
Si       2.07396137      -0.72521452       0.83464397       0.00000000
Si       0.75500893       0.58121743      -2.15820585       0.00000000
Si      -1.28822461      -1.98899599      -0.12994632       0.00000000
Si      -0.61129855       1.50087591       1.78254604       0.00000000
H        0.67196251       1.51687269       2.59685490       0.00000000
H        0.13706406       1.88618328      -2.59618387       0.00000000
Si      -0.08832438       3.51629101       0.05954657       0.00000000
Si       1.28681227      -2.22647161       2.53923389       0.00000000
Si       3.12061017      -1.40035683      -1.23659063       0.00000000
Si      -1.98661765       0.05448191       3.06214091       0.00000000
