10
Lattice="16.290000149 0.0 0.0 0.0 16.290000149 0.0 0.0 0.0 29.1751946751" Properties=species:S:1:pos:R:3:initial_magmoms:R:1 pbc="T T T"
Si      -1.34492685       1.36091060      -1.35673408       0.00000000
Si       1.35685927       1.36185053       1.35054894       0.00000000
Si      -1.37483529      -1.34895862       1.35084069       0.00000000
Si       1.31799133      -1.37024965      -1.38838916       0.00000000
Si      -2.65948930      -0.02337615      -2.71974082       0.00000000
Si       0.01371618      -2.69891093       2.68096699       0.00000000
Si       2.70435179      -0.01045818      -2.69400830       0.00000000
Si      -0.02717172       2.71635752       2.68490564       0.00000000
Si      -2.68950952      -2.71498916      -0.04315011       0.00000000
Si       2.69993720      -2.71694396      -0.05236947       0.00000000
