10
Lattice="10.86 0.0 0.0 0.0 10.86 0.0 0.0 0.0 10.86" Properties=species:S:1:pos:R:3:initial_magmoms:R:1 pbc="T T T"
Si      -1.16886180       1.30104972      -1.32833004       0.00000000
Si      -1.16886180      -1.41395028       1.38666996       0.00000000
Si       1.54613820       1.30104972       1.38666996       0.00000000
Si       1.76641158      -1.71925746      -0.84128076       0.00000000
Si       0.10014006      -2.64079362      -2.36612250       0.00000000
Si      -2.52636180       2.65854972       0.02916996       0.00000000
Si      -2.52636180      -0.05645028      -2.68583004       0.00000000
Si      -2.52636180      -0.05645028       2.74416996       0.00000000
Si      -2.52636180      -2.77145028       0.02916996       0.00000000
Si       2.99210376      -0.11206434      -2.28237018       0.00000000
