10
Lattice="10.86 0.0 0.0 0.0 10.86 0.0 0.0 0.0 10.86" Properties=species:S:1:pos:R:3:initial_magmoms:R:1 pbc="T T T"
Si       1.32715716       1.37131392       1.33778910       0.00000000
Si      -1.38784284      -1.34368608       1.33778910       0.00000000
Si      -1.38784284       1.37131392      -1.37721090       0.00000000
Si       2.64937302      -0.25301628      -2.55833364       0.00000000
Si       2.68465716       0.01381392       2.69528910       0.00000000
Si      -0.03034284      -2.70118608       2.69528910       0.00000000
Si       2.68465716       2.72881392      -0.01971090       0.00000000
Si      -0.03034284       2.72881392       2.69528910       0.00000000
Si      -2.74534284       0.01381392       2.69528910       0.00000000
Si      -0.03034284       2.72881392      -2.73471090       0.00000000
