10
Lattice="10.86 0.0 0.0 0.0 10.86 0.0 0.0 0.0 10.86" Properties=species:S:1:pos:R:3:initial_magmoms:R:1 pbc="T T T"
Si      -1.17655068       1.40907414      -1.17931998       0.00000000
Si      -1.17655068      -1.30592586       1.53568002       0.00000000
Si       1.53844932      -1.30592586      -1.17931998       0.00000000
Si      -2.53405068       0.05157414      -2.53681998       0.00000000
Si       2.51341668       2.66135160       0.16379052       0.00000000
Si      -2.53405068      -2.66342586       0.17818002       0.00000000
Si       0.18094932      -2.66342586      -2.53681998       0.00000000
Si       0.18094932       2.76657414      -2.53681998       0.00000000
Si      -2.44546566       0.11759208       2.86895136       0.00000000
Si       2.89594932       0.05157414      -2.53681998       0.00000000
