10
Lattice="10.86 0.0 0.0 0.0 10.86 0.0 0.0 0.0 10.86" Properties=species:S:1:pos:R:3:initial_magmoms:R:1 pbc="T T T"
Si       1.35556692      -1.29971394      -1.23969072       0.00000000
Si      -1.35943308       1.41528606      -1.23969072       0.00000000
Si      -1.35943308      -1.29971394       1.47530928       0.00000000
Si      -0.00193308      -2.65721394      -2.59719072       0.00000000
Si       2.71306692       0.05778606      -2.59719072       0.00000000
Si      -2.71693308       0.05778606      -2.59719072       0.00000000
Si      -0.00193308       2.77278606      -2.59719072       0.00000000
Si       2.71306692      -2.65721394       0.11780928       0.00000000
Si      -2.71693308      -2.65721394       0.11780928       0.00000000
Si       2.55665034       2.80309632       0.27688656       0.00000000
