10
Lattice="16.290000149 0.0 0.0 0.0 16.290000149 0.0 0.0 0.0 29.1751946751" Properties=species:S:1:pos:R:3:initial_magmoms:R:1 pbc="T T T"
Si      -1.35573526      -1.31455414       1.39884555       0.00000000
Si       1.34421823       1.36992385       1.36199728       0.00000000
Si      -1.37375200       1.35086455      -1.36111619       0.00000000
Si       1.42646644      -1.37580454      -1.29331596       0.00000000
Si      -2.67597461      -2.65605194       0.00509107       0.00000000
Si      -2.54734877      -0.11789073      -2.80976380       0.00000000
Si       2.68630247      -0.00679293      -2.71695751       0.00000000
Si       2.71155197       2.71989245       0.01139291       0.00000000
Si      -0.00293220      -2.68182272       2.75438345       0.00000000
Si       2.80157052      -2.63985968       0.12370866       0.00000000
