10
Lattice="16.290000149 0.0 0.0 0.0 16.290000149 0.0 0.0 0.0 29.1751946751" Properties=species:S:1:pos:R:3:initial_magmoms:R:1 pbc="T T T"
Si      -1.40133097       1.42478857      -1.22139035       0.00000000
Si      -1.32620149      -1.38199474       1.37727050       0.00000000
Si       1.20049156      -1.46989558      -1.43116000       0.00000000
Si       1.30636027       1.44642169       1.37189059       0.00000000
H        3.21668859       1.72758710      -0.51109106       0.00000000
Si      -0.00718389       2.65681757      -2.64753222       0.00000000
Si       2.66815541      -2.68104080       0.02704541       0.00000000
Si       2.52846866      -0.13843242      -2.83317398       0.00000000
Si      -2.90377398       0.13892112      -2.50743293       0.00000000
Si       2.73386927       0.07960923       2.70581842       0.00000000
