10
Lattice="16.290000149 0.0 0.0 0.0 16.290000149 0.0 0.0 0.0 29.1751946751" Properties=species:S:1:pos:R:3:initial_magmoms:R:1 pbc="T T T"
Si      -1.52052490       1.31754499       1.19732081       0.00000000
Si       1.41405346       1.28245633      -1.38185392       0.00000000
Si      -1.22719087      -1.43505779      -1.42669619       0.00000000
Si       0.97974577      -0.85884302       1.98823117       0.00000000
Si      -0.08299755       2.64825881       2.41007531       0.00000000
Si      -0.76882285      -1.18401097       3.47879186       0.00000000
Si       1.10302849      -3.16503951       1.75191209       0.00000000
Si      -2.68506443      -0.12173354       2.70025179       0.00000000
Si      -2.57126249      -2.81337099      -0.11387078       0.00000000
Si       0.06685416       2.61584171      -2.78914861       0.00000000
