10
Lattice="16.290000149 0.0 0.0 0.0 16.290000149 0.0 0.0 0.0 29.1751946751" Properties=species:S:1:pos:R:3:initial_magmoms:R:1 pbc="T T T"
Si      -1.33263604       1.36594909      -1.37152590       0.00000000
Si       1.36983426       1.37475872       1.32799651       0.00000000
Si       1.36975769      -1.34030863      -1.37992836       0.00000000
Si      -1.37885077      -1.32613633       1.38990627       0.00000000
Si      -2.63635733      -2.69433344      -0.06561501       0.00000000
Si       0.05945513      -2.67582800       2.67661989       0.00000000
Si      -0.02593368       2.71487513       2.67425669       0.00000000
Si      -2.70378164       2.70545951      -0.00563081       0.00000000
Si      -2.66411549       0.01097946      -2.75469271       0.00000000
Si       2.77532733       0.03746311       2.66106951       0.00000000
