10
Lattice="16.290000149 0.0 0.0 0.0 16.290000149 0.0 0.0 0.0 29.1751946751" Properties=species:S:1:pos:R:3:initial_magmoms:R:1 pbc="T T T"
Si       0.43852680      -0.24676092       2.28331784       0.00000000
Si      -1.71787826       1.62966790       0.10540998       0.00000000
Si      -0.04991256      -2.29418588      -0.66697413       0.00000000
Si       1.86830012       0.90021799      -1.27568539       0.00000000
H       -0.91994518       0.16322580      -2.54113028       0.00000000
Si       2.15327738      -2.67488318       0.13864053       0.00000000
Si      -0.32065236       3.36750141      -0.80797784       0.00000000
Si       2.07135497      -1.98190658       2.36783254       0.00000000
Si      -3.77424642       0.61740730      -0.61556743       0.00000000
Si       3.46312371       1.71243740       0.28556681       0.00000000
