10
Lattice="16.290000149 0.0 0.0 0.0 16.290000149 0.0 0.0 0.0 29.1751946751" Properties=species:S:1:pos:R:3:initial_magmoms:R:1 pbc="T T T"
Si       1.35555607       1.34022718      -1.31522653       0.00000000
Si       1.43391097      -1.31927824       1.28230816       0.00000000
Si      -1.33563340       1.44159985       1.28887258       0.00000000
Si      -1.30352581      -1.29515275      -1.47637863       0.00000000
Si      -0.05119947       2.70394454      -2.56902177       0.00000000
Si       0.05391990      -2.63707409       2.64546078       0.00000000
Si      -2.67085955      -2.64512135      -0.12577426       0.00000000
Si      -2.69918786       0.07986987       2.61812362       0.00000000
Si       2.78029578      -2.59872743      -0.17764776       0.00000000
Si       2.76946293       0.08518041       2.62022423       0.00000000
