10
Lattice="16.290000149 0.0 0.0 0.0 16.290000149 0.0 0.0 0.0 29.1751946751" Properties=species:S:1:pos:R:3:initial_magmoms:R:1 pbc="T T T"
Si      -1.41405346      -1.28245633       1.38185392       0.00000000
Si       1.32449104      -1.39587708      -1.36312345       0.00000000
Si       1.39776346       1.37458279       1.31212521       0.00000000
Si      -1.34719930       1.33338538      -1.40729469       0.00000000
Si       0.00912240       2.72580572       2.63171926       0.00000000
Si      -2.64124433      -2.71751411      -0.04484227       0.00000000
Si       2.58708008      -2.78655114       0.06853253       0.00000000
Si       2.69021207      -0.03691314      -2.74179727       0.00000000
Si      -2.71577108       2.72140742      -0.09543206       0.00000000
Si       2.73887030       2.72031599      -0.06118038       0.00000000
