10
Lattice="16.290000149 0.0 0.0 0.0 16.290000149 0.0 0.0 0.0 29.1751946751" Properties=species:S:1:pos:R:3:initial_magmoms:R:1 pbc="T T T"
Si       1.37999107       1.31779585      -1.36315262       0.00000000
Si      -1.37362168      -1.32664132      -1.36315262       0.00000000
Si       1.35531172      -1.37033110       1.33911226       0.00000000
Si      -1.36853920       1.37940463       1.32236570       0.00000000
Si      -0.05391990       2.63707409      -2.64546078       0.00000000
Si       0.04483008      -2.65766465      -2.66474558       0.00000000
Si       2.72575685      -0.00822645       2.66573754       0.00000000
Si      -2.72862390       0.01611081       2.66538744       0.00000000
Si      -0.01290168       2.73250092       2.68225070       0.00000000
Si      -0.00074934      -2.72554508       2.69707170       0.00000000
