10
Lattice="16.290000149 0.0 0.0 0.0 16.290000149 0.0 0.0 0.0 29.1751946751" Properties=species:S:1:pos:R:3:initial_magmoms:R:1 pbc="T T T"
Si       1.35472528      -1.36656811       1.33724505       0.00000000
Si      -1.35539317      -1.36677988      -1.33905391       0.00000000
Si       1.37541358       1.33690402      -1.36102283       0.00000000
Si      -1.37790595       1.34609158       1.35731758       0.00000000
Si       2.64748340       0.07152939       2.64983706       0.00000000
Si       0.02854008      -2.72273669      -2.67233113       0.00000000
Si      -2.68420921      -0.00847080      -2.71463516       0.00000000
Si      -2.70674154       2.70267392      -0.01108657       0.00000000
Si      -2.70411559      -2.71867396       0.03652734       0.00000000
Si       0.03261258       2.71875215      -2.70623271       0.00000000
