10
Lattice="16.290000149 0.0 0.0 0.0 16.290000149 0.0 0.0 0.0 29.1751946751" Properties=species:S:1:pos:R:3:initial_magmoms:R:1 pbc="T T T"
Si      -2.19892196       0.71910577       0.46263106       0.00000000
Si       1.55835028       1.32910111       1.20155122       0.00000000
Si      -0.25295112      -2.03546810       1.20257235       0.00000000
Si      -0.28838187       0.88443298      -2.24374752       0.00000000
H        2.21550518      -0.97337638      -1.64658964       0.00000000
H        0.80368345      -1.86320135      -2.18959836       0.00000000
H        1.59392764      -2.62850555      -0.54047048       0.00000000
H        1.05630877      -2.50041728       1.81183794       0.00000000
Si      -2.16023321       2.86546153      -0.51686775       0.00000000
Si      -0.41166459       3.19062948      -2.00742844       0.00000000
