10
Lattice="16.290000149 0.0 0.0 0.0 16.290000149 0.0 0.0 0.0 29.1751946751" Properties=species:S:1:pos:R:3:initial_magmoms:R:1 pbc="T T T"
Si       1.34407162       1.37831320      -1.31282541       0.00000000
Si       1.54614907      -1.32341590       1.18570909       0.00000000
Si      -1.36521604       1.37023336       1.34418874       0.00000000
Si      -1.40281336      -1.32491458      -1.36329850       0.00000000
Si       2.57126249       2.81337099       0.11387078       0.00000000
Si      -0.05685210       2.71810055      -2.67393577       0.00000000
Si       2.64834677       0.03139083      -2.74442304       0.00000000
Si       2.63093276      -2.74514196      -0.30951964       0.00000000
Si      -2.77532733      -2.64776033      -0.00350102       0.00000000
Si      -2.71244792       0.08171064       2.71597722       0.00000000
