10
Lattice="16.290000149 0.0 0.0 0.0 16.290000149 0.0 0.0 0.0 29.1751946751" Properties=species:S:1:pos:R:3:initial_magmoms:R:1 pbc="T T T"
Si       1.37067319      -1.34612416      -1.33820783       0.00000000
Si       1.37844352       1.33563340       1.34415957       0.00000000
Si      -1.34996860      -1.36462960       1.35629645       0.00000000
Si      -1.34550514       1.35834166      -1.36992127       0.00000000
Si       0.00081450       2.70208748       2.65640148       0.00000000
Si      -0.01487277      -2.69628824      -2.66308259       0.00000000
Si      -2.72039744      -0.00757485       2.68913604       0.00000000
Si       2.74097171       0.01210347      -2.67618226       0.00000000
Si      -2.69273702       0.00138465      -2.73176100       0.00000000
Si       2.73450458       2.69084738      -0.01379987       0.00000000
