10
Lattice="16.290000149 0.0 0.0 0.0 16.290000149 0.0 0.0 0.0 29.1751946751" Properties=species:S:1:pos:R:3:initial_magmoms:R:1 pbc="T T T"
Si       1.36743148       1.35842311       1.32901764       0.00000000
Si       1.37042884      -1.35705475      -1.33283959       0.00000000
Si      -1.34280100       1.38184813      -1.34520988       0.00000000
Si      -1.37541358      -1.33690402       1.36102283       0.00000000
Si      -0.07047054       2.69293250       2.60998374       0.00000000
Si      -0.00250866      -2.70443324      -2.67629896       0.00000000
Si      -2.69145011       0.02070459      -2.69584634       0.00000000
Si      -0.02068830      -2.70347213       2.69826788       0.00000000
Si       2.72039744       0.00757485      -2.68913604       0.00000000
Si       2.72121194       2.70966233      -0.03273457       0.00000000
