10
Lattice="16.290000149 0.0 0.0 0.0 16.290000149 0.0 0.0 0.0 29.1751946751" Properties=species:S:1:pos:R:3:initial_magmoms:R:1 pbc="T T T"
Si       1.37705887       1.34016202       1.33310217       0.00000000
Si       1.37762902      -1.36645408      -1.31224191       0.00000000
Si      -1.35378046      -1.35123922       1.36175221       0.00000000
Si      -1.35024553       1.37520181      -1.34392617       0.00000000
Si      -0.05607018       2.66325212       2.61567290       0.00000000
Si      -0.00081450      -2.70208748      -2.65640148       0.00000000
Si       2.73369009      -0.01124010      -2.67020134       0.00000000
Si      -2.71583624       0.01992267      -2.69050728       0.00000000
Si       0.00965997      -2.67621896       2.74302263       0.00000000
Si       2.72632700       2.69741225      -0.02077274       0.00000000
