10
Lattice="16.290000149 0.0 0.0 0.0 16.290000149 0.0 0.0 0.0 29.1751946751" Properties=species:S:1:pos:R:3:initial_magmoms:R:1 pbc="T T T"
Si      -1.32924772       1.31435866       1.41990713       0.00000000
Si      -1.42643386      -1.35962857      -1.27990820       0.00000000
Si       1.32934546      -1.39492900       1.36934651       0.00000000
Si       1.33512841       1.36494970      -1.40768856       0.00000000
Si       0.01707192      -2.55511910      -2.63727713       0.00000000
Si       2.63319707       2.64887620       0.09801990       0.00000000
Si      -2.60880606       2.68642139       0.03256827       0.00000000
Si      -2.74118511      -0.07599285       2.67596344       0.00000000
Si       2.66639609      -0.06988410       2.77396292       0.00000000
Si       2.71075376      -2.75159280       0.04487728       0.00000000
