10
Lattice="16.290000149 0.0 0.0 0.0 16.290000149 0.0 0.0 0.0 29.1751946751" Properties=species:S:1:pos:R:3:initial_magmoms:R:1 pbc="T T T"
Si       1.30945537      -1.42614064       1.29963822       0.00000000
Si      -1.35138583      -1.38629530      -1.32268663       0.00000000
Si       1.37645614       1.33051834      -1.35495439       0.00000000
Si      -1.29943702       1.35710362       1.41785611       0.00000000
Si       2.65974977      -0.08268804       2.61208435       0.00000000
Si       0.00825903       2.68817582      -2.68160884       0.00000000
Si      -2.67052072       2.70132185       0.06301842       0.00000000
Si      -2.69096304      -0.02660157      -2.68455554       0.00000000
Si      -2.63127648      -0.04214223       2.75933156       0.00000000
Si       0.03712491      -2.73722501      -2.65555539       0.00000000
