10
Lattice="16.290000149 0.0 0.0 0.0 16.290000149 0.0 0.0 0.0 29.1751946751" Properties=species:S:1:pos:R:3:initial_magmoms:R:1 pbc="T T T"
Si       1.41193739       1.39035151      -1.25605632       0.00000000
Si       1.36606475      -1.34703640       1.37213858       0.00000000
Si      -1.28147648       1.34514676       1.45607562       0.00000000
Si      -1.39031730      -1.28660050      -1.43495569       0.00000000
Si      -2.69337071      -2.63958275      -0.00061268       0.00000000
Si      -2.59875838       2.78080728       0.18164476       0.00000000
Si       0.13237906       2.76241424      -2.64339517       0.00000000
Si       2.74118511       0.07599285      -2.67596344       0.00000000
Si       2.71743429      -2.71652042       0.01347894       0.00000000
Si       0.01920102      -2.69438231       2.74042604       0.00000000
