10
Lattice="16.290000149 0.0 0.0 0.0 16.290000149 0.0 0.0 0.0 29.1751946751" Properties=species:S:1:pos:R:3:initial_magmoms:R:1 pbc="T T T"
Si      -1.34799020      -1.35316144       1.35755098       0.00000000
Si      -1.36895543       1.35645202      -1.34027927       0.00000000
Si       1.33029108      -1.34959393      -1.39101493       0.00000000
Si       1.31423240       1.36653553       1.39407833       0.00000000
Si       0.02961357       2.68993514      -2.67536535       0.00000000
Si       2.68189520      -2.70850574      -0.03188849       0.00000000
Si      -2.69188263       0.01251072       2.70839167       0.00000000
Si       2.69007278       2.71438643       0.04358774       0.00000000
Si      -2.71854936      -2.70099605       0.00160464       0.00000000
Si       2.70367493       0.01749546       2.72385453       0.00000000
