10
Lattice="16.290000149 0.0 0.0 0.0 16.290000149 0.0 0.0 0.0 29.1751946751" Properties=species:S:1:pos:R:3:initial_magmoms:R:1 pbc="T T T"
Si       1.91624159      -1.06227743       0.77854007       0.00000000
Si      -1.25141410      -1.32140409      -1.46993383       0.00000000
Si       1.16453953       1.43927853      -1.50293098       0.00000000
Si      -0.97264333       0.40062812       2.15490905       0.00000000
H       -1.88196743       1.96235043       0.66055558       0.00000000
Si       0.04447170       2.55595804       2.54328925       0.00000000
Si      -2.59864598      -2.60992681      -0.09814535       0.00000000
Si       3.66481020      -0.73710947      -0.71202063       0.00000000
Si       2.68506443       0.12173354      -2.70025179       0.00000000
Si       2.60206688       2.76999235      -0.29017649       0.00000000
