10
Lattice="16.290000149 0.0 0.0 0.0 16.290000149 0.0 0.0 0.0 29.1751946751" Properties=species:S:1:pos:R:3:initial_magmoms:R:1 pbc="T T T"
Si       1.36028017      -1.35284705       1.35235780       0.00000000
Si      -1.36236529       1.36256566       1.34585173       0.00000000
Si       1.34952877       1.38771742      -1.33534866       0.00000000
Si      -1.34641738      -1.38822893      -1.33922896       0.00000000
Si      -2.78093109      -0.04223671      -2.60047263       0.00000000
Si       0.00040725      -2.71592910       2.69465016       0.00000000
Si       2.79225264       0.05492499      -2.61675239       0.00000000
Si      -0.00267156       2.70657212       2.70885848       0.00000000
Si      -0.02787219       2.72743961      -2.69409583       0.00000000
Si      -2.72658764       0.01521649       2.69619644       0.00000000
