10
Lattice="16.290000149 0.0 0.0 0.0 16.290000149 0.0 0.0 0.0 29.1751946751" Properties=species:S:1:pos:R:3:initial_magmoms:R:1 pbc="T T T"
Si      -1.35498592      -1.35503479       1.33391908       0.00000000
Si      -1.37500633       1.34607203      -1.33666154       0.00000000
Si       1.30647430       1.31352461       1.44723553       0.00000000
Si       1.35198856      -1.38507355      -1.33820783       0.00000000
Si       0.03987792      -2.80662042       2.52639681       0.00000000
Si       2.67219533       2.67248855       0.06856171       0.00000000
Si      -0.01078398       2.69342120      -2.68700625       0.00000000
Si       2.71186148      -0.02199150      -2.68050019       0.00000000
Si      -2.72477945      -0.02363679      -2.68852336       0.00000000
Si      -2.72523557       2.69630453       0.03579796       0.00000000
