10
Lattice="16.290000149 0.0 0.0 0.0 16.290000149 0.0 0.0 0.0 29.1751946751" Properties=species:S:1:pos:R:3:initial_magmoms:R:1 pbc="T T T"
Si       1.42058575       1.30968343       1.31372984       0.00000000
Si       1.37780821      -1.34654770      -1.32280333       0.00000000
Si      -1.34926813      -1.35725023       1.35387491       0.00000000
Si      -1.36085032       1.39417966      -1.30629017       0.00000000
Si       0.05699871       2.67893939       2.57526526       0.00000000
Si       0.00736308      -2.70865235      -2.64942860       0.00000000
Si       2.73007371       0.04474863      -2.64934108       0.00000000
Si      -2.71648784       0.04108338      -2.66617517       0.00000000
Si       0.01308087       2.73717614      -2.64814490       0.00000000
Si       2.73401588      -2.67543704       0.06497316       0.00000000
