10
Lattice="16.290000149 0.0 0.0 0.0 16.290000149 0.0 0.0 0.0 29.1751946751" Properties=species:S:1:pos:R:3:initial_magmoms:R:1 pbc="T T T"
H       -0.61783084       1.30273575      -0.44077884       0.00000000
Si      -0.84196495      -1.65135804      -1.40353109       0.00000000
Si       2.30630564       0.08860946      -0.36293942       0.00000000
Si      -0.75834838      -0.59133352       2.15260421       0.00000000
H        1.39698154       1.65033177      -1.85729289       0.00000000
Si       2.35929701      -1.98142602       0.92345326       0.00000000
Si      -2.22888742      -0.20668101      -2.55878127       0.00000000
Si      -2.12404172       2.77023670       0.18774238       0.00000000
Si       1.31220838      -1.31221164       2.99629249       0.00000000
Si       0.49485762       2.55263488      -2.66710877       0.00000000
