10
Lattice="16.290000149 0.0 0.0 0.0 16.290000149 0.0 0.0 0.0 29.1751946751" Properties=species:S:1:pos:R:3:initial_magmoms:R:1 pbc="T T T"
Si      -0.47441367       2.02994579      -1.06045998       0.00000000
Si       1.59482359       0.81221941       1.56125219       0.00000000
Si       1.29492469      -1.50247558      -1.31784354       0.00000000
Si      -1.86830012      -0.90021799       1.27568539       0.00000000
H       -2.78824530      -0.73699219      -1.26544489       0.00000000
H        1.03868299       1.18322416      -2.76248248       0.00000000
H       -1.07789302       1.94155625      -2.45938139       0.00000000
Si      -2.18895248       2.46728342       0.46770755       0.00000000
Si       2.22431807      -2.54725103       0.51427116       0.00000000
Si       3.29411496      -0.78713281       1.57811546       0.00000000
