10
Lattice="16.290000149 0.0 0.0 0.0 16.290000149 0.0 0.0 0.0 29.1751946751" Properties=species:S:1:pos:R:3:initial_magmoms:R:1 pbc="T T T"
Si      -0.63200314       0.84378943      -1.08470456       0.00000000
Si       2.15379866       0.26454960       1.30509398       0.00000000
Si       2.25671888      -1.46028448      -0.50473087       0.00000000
Si       0.39687327       1.22810311       2.57158918       0.00000000
Si      -2.06571863       2.06931872       0.19961668       0.00000000
Si       0.43074018      -2.66331240      -1.50654870       0.00000000
Si      -2.06953049      -0.48692439      -2.29745906       0.00000000
Si      -0.69100552      -2.30320077       2.13051859       0.00000000
Si      -1.37215558      -0.25348869       2.90051033       0.00000000
Si       0.87417028       2.20379267      -2.24491453       0.00000000
