10
Lattice="16.290000149 0.0 0.0 0.0 16.290000149 0.0 0.0 0.0 29.1751946751" Properties=species:S:1:pos:R:3:initial_magmoms:R:1 pbc="T T T"
Si       1.36733374       1.34996860      -1.35060437       0.00000000
Si      -1.34421823      -1.36992385      -1.36199728       0.00000000
Si       1.35115777      -1.31859406       1.40808242       0.00000000
Si      -1.36285399       1.37352394       1.34961533       0.00000000
Si       2.67085955       2.64512135       0.12577426       0.00000000
Si      -2.69995349      -2.68447799       0.03684827       0.00000000
Si       0.08224821      -2.74572840      -2.65531324       0.00000000
Si      -0.00562005       2.76130164      -2.65369693       0.00000000
Si       2.76960954      -2.64961739       0.10648946       0.00000000
Si      -2.71797023      -0.01905930      -2.72311348       0.00000000
