10
Lattice="16.290000149 0.0 0.0 0.0 16.290000149 0.0 0.0 0.0 29.1751946751" Properties=species:S:1:pos:R:3:initial_magmoms:R:1 pbc="T T T"
Si       1.45879118       1.17771814      -1.41813619       0.00000000
Si      -1.39610188      -1.32066289      -1.36468724       0.00000000
Si      -1.33038802       1.43998714       1.31408578       0.00000000
Si       1.38740302      -1.36065484       1.35663196       0.00000000
Si       0.13949127      -2.59849937      -2.55748590       0.00000000
Si       0.05536971       2.34704693      -2.88013437       0.00000000
H       -0.84756871       3.08796501      -1.90282370       0.00000000
Si      -2.67164147       0.02189376       2.67409331       0.00000000
Si       2.67898012       2.66725946      -0.01904848       0.00000000
Si      -2.61325811      -2.75550240       0.07763519       0.00000000
