10
Lattice="16.290000149 0.0 0.0 0.0 16.290000149 0.0 0.0 0.0 29.1751946751" Properties=species:S:1:pos:R:3:initial_magmoms:R:1 pbc="T T T"
Si      -1.35635428      -1.34996860      -1.35393326       0.00000000
Si      -1.34377840       1.33116994       1.38660948       0.00000000
Si       1.34086249       1.35280306      -1.38526742       0.00000000
Si       1.34563546      -1.38065896       1.35384573       0.00000000
Si       0.06836913      -2.71037909      -2.62407536       0.00000000
Si      -2.70625772       2.67035456       0.02217315       0.00000000
Si       2.70506204       2.68257206      -0.00601009       0.00000000
Si      -2.69604389      -0.06012639       2.71314723       0.00000000
Si       2.69518378      -0.03593574      -2.71516032       0.00000000
Si       2.69772014      -0.02818170       2.71524784       0.00000000
