10
Lattice="16.290000149 0.0 0.0 0.0 16.290000149 0.0 0.0 0.0 29.1751946751" Properties=species:S:1:pos:R:3:initial_magmoms:R:1 pbc="T T T"
Si      -1.19465974      -0.36983187      -0.89080622       0.00000000
H        1.40740714      -2.03172140       0.45630004       0.00000000
Si      -0.34251354       1.11692386      -2.52820567       0.00000000
Si       0.09226656       2.92495098      -1.03889951       0.00000000
Si      -1.96345327      -2.48513726       0.28760907       0.00000000
Si       2.00669996       1.17255421       2.18945248       0.00000000
Si      -1.44689410      -1.57753990       2.38186289       0.00000000
Si       0.60947407      -0.56527930       3.10284030       0.00000000
Si      -0.65041084      -2.75273310      -1.62427061       0.00000000
H        3.11775942       0.64682704      -0.73763645       0.00000000
