10
Lattice="16.290000149 0.0 0.0 0.0 16.290000149 0.0 0.0 0.0 29.1751946751" Properties=species:S:1:pos:R:3:initial_magmoms:R:1 pbc="T T T"
Si       1.27955833      -1.37206273       1.38733886       0.00000000
Si      -1.34555287      -1.21404696      -1.48294014       0.00000000
Si      -1.43156277       1.30754455       1.35286836       0.00000000
Si       1.33632899       1.40622938      -1.35207363       0.00000000
Si      -1.63128550       0.61217332      -3.05128190       0.00000000
Si      -0.29856638       2.58917661      -2.56300584       0.00000000
Si       2.60880606      -2.68642139      -0.03256827       0.00000000
Si      -2.82369722      -2.51868326      -0.10837126       0.00000000
Si      -0.06951106       2.70387450       2.67014883       0.00000000
Si       2.58075468      -0.04425830       2.81237790       0.00000000
