10
Lattice="16.290000149 0.0 0.0 0.0 16.290000149 0.0 0.0 0.0 29.1751946751" Properties=species:S:1:pos:R:3:initial_magmoms:R:1 pbc="T T T"
Si      -1.32883559       1.35658234      -1.36840416       0.00000000
Si       1.31074228       1.42964299       1.32367858       0.00000000
Si      -1.34366763      -1.36643779       1.36326932       0.00000000
Si       1.37790595      -1.34609158      -1.35731758       0.00000000
Si       2.66507660       0.07161084       2.62824741       0.00000000
Si      -2.64956852       2.69280218       0.03906559       0.00000000
Si       2.68284899       2.68374494      -0.10835667       0.00000000
Si      -2.67208130      -0.00289962      -2.72312515       0.00000000
Si      -2.61552096      -0.00434943       2.78556006       0.00000000
Si       0.02251278      -2.71287146      -2.69637149       0.00000000
