10
Lattice="16.290000149 0.0 0.0 0.0 16.290000149 0.0 0.0 0.0 29.1751946751" Properties=species:S:1:pos:R:3:initial_magmoms:R:1 pbc="T T T"
Si      -0.65585170       0.42329565      -2.13044274       0.00000000
Si      -1.90785224      -0.79042339       1.12090223       0.00000000
Si       0.85740787       1.93759778       1.03843854       0.00000000
Si       1.70471594      -1.66910600      -0.12799070       0.00000000
H       -1.21308373      -2.61946460      -0.80142509       0.00000000
Si       2.17225523       0.67364038       2.51119361       0.00000000
Si      -0.65826262      -2.16085223       2.53357974       0.00000000
Si       3.42940341      -0.73037845       1.14919341       0.00000000
Si       0.83922823      -3.39689835       1.25379232       0.00000000
Si      -2.35514306       2.02264787      -2.14730600       0.00000000
