10
Lattice="16.290000149 0.0 0.0 0.0 16.290000149 0.0 0.0 0.0 29.1751946751" Properties=species:S:1:pos:R:3:initial_magmoms:R:1 pbc="T T T"
H       -1.18592830      -0.53023950      -1.05401226       0.00000000
Si      -1.53559315       1.27783648       1.19279866       0.00000000
Si       1.14130999      -1.50012982       1.38177952       0.00000000
Si       1.67249269       0.77915071      -1.44361781       0.00000000
Si      -2.47917512      -1.08489772      -1.97329347       0.00000000
Si       3.08732970      -1.16698303      -1.45175769       0.00000000
Si      -0.13949127       2.59849937       2.55748590       0.00000000
Si       2.64798351      -0.11303631       2.54651019       0.00000000
Si       2.77976472       2.49261437      -0.20300100       0.00000000
Si       2.40396582      -2.92750851       0.05444091       0.00000000
