10
Lattice="16.290000149 0.0 0.0 0.0 16.290000149 0.0 0.0 0.0 29.1751946751" Properties=species:S:1:pos:R:3:initial_magmoms:R:1 pbc="T T T"
Si       0.84457135      -1.84414205       1.12569571       0.00000000
Si      -1.72571375       0.75673567       1.37561043       0.00000000
Si      -1.06986205      -0.09174528      -2.10265628       0.00000000
Si       1.79545124       1.59834223       0.11713841       0.00000000
H        2.32518575       1.85748356      -1.27028798       0.00000000
H       -1.16212861      -3.01669626      -1.06375677       0.00000000
Si       2.55911015      -2.28147968      -0.40247181       0.00000000
Si      -0.36794223       2.10452141       2.71746516       0.00000000
H        1.65897362       0.94442905      -2.88872355       0.00000000
Si      -0.64207036       2.12172365      -2.71469351       0.00000000
