10
Lattice="16.290000149 0.0 0.0 0.0 16.290000149 0.0 0.0 0.0 29.1751946751" Properties=species:S:1:pos:R:3:initial_magmoms:R:1 pbc="T T T"
Si       1.31484736      -1.26395740       1.47275507       0.00000000
Si      -0.85740787      -1.93759778      -1.03843854       0.00000000
Si      -1.43066926       1.37111302       1.28523735       0.00000000
Si       1.21715623       1.43483950      -1.44232243       0.00000000
Si       2.57199554      -2.66797622       0.11075487       0.00000000
Si       2.61325811       2.75550240      -0.07763519       0.00000000
Si      -0.05838336       2.77739616       2.59645812       0.00000000
Si       2.75274939       0.15700302      -2.63512109       0.00000000
Si      -0.09598068      -2.66877443       2.73002216       0.00000000
Si      -1.51325956      -1.51430212      -3.16888127       0.00000000
