10
Lattice="16.290000149 0.0 0.0 0.0 16.290000149 0.0 0.0 0.0 29.1751946751" Properties=species:S:1:pos:R:3:initial_magmoms:R:1 pbc="T T T"
Si      -1.34110684      -1.34573320       1.37330559       0.00000000
Si       1.32348106      -1.36992385      -1.37432672       0.00000000
Si      -1.35865117       1.32608746      -1.38999380       0.00000000
Si       1.34395759       1.32559876       1.40717799       0.00000000
Si       2.70159878       2.66963780       0.01286626       0.00000000
Si       2.62918973      -2.74781352      -0.00072938       0.00000000
Si      -2.72979677       2.68433138      -0.06611099       0.00000000
Si      -2.72974790       0.00548973       2.69289964       0.00000000
Si       2.67908600      -0.02606400      -2.74932447       0.00000000
Si      -0.00395847       2.69928560      -2.73307389       0.00000000
