10
Lattice="16.290000149 0.0 0.0 0.0 16.290000149 0.0 0.0 0.0 29.1751946751" Properties=species:S:1:pos:R:3:initial_magmoms:R:1 pbc="T T T"
Si      -1.37862271      -1.36412461      -1.30430625       0.00000000
Si      -1.38508984       1.31461930       1.35807614       0.00000000
Si       1.32928030      -1.36648666       1.37578548       0.00000000
Si       1.32504490       1.38688174      -1.38237907       0.00000000
Si      -2.69557148       0.02728575      -2.64578170       0.00000000
Si      -0.01464471       2.67672395       2.68470141       0.00000000
Si       2.68817582      -0.00037467       2.70567838       0.00000000
Si      -0.05162301      -2.72287352      -2.67058062       0.00000000
Si       2.74976832       0.02647125      -2.65252117       0.00000000
Si       2.69452892      -2.71378370       0.02561582       0.00000000
