10
Lattice="16.290000149 0.0 0.0 0.0 16.290000149 0.0 0.0 0.0 29.1751946751" Properties=species:S:1:pos:R:3:initial_magmoms:R:1 pbc="T T T"
Si       2.29939868       0.06683787      -0.45192377       0.00000000
Si      -0.85796173       2.07946739      -0.79204819       0.00000000
Si      -0.14092479       0.41658417       2.35896037       0.00000000
Si      -0.91890262      -2.08389338      -0.81436721       0.00000000
H       -2.30438342       0.19613160       0.91694719       0.00000000
H       -1.01095741       2.87399586       0.48480421       0.00000000
Si      -3.58586886       0.15929991       0.09805783       0.00000000
Si      -2.98945938      -1.36301526      -1.65805549       0.00000000
Si       3.07221258       2.10851246       0.43240556       0.00000000
Si       2.06226515       0.03588687       3.16457502       0.00000000
