10
Lattice="16.290000149 0.0 0.0 0.0 16.290000149 0.0 0.0 0.0 29.1751946751" Properties=species:S:1:pos:R:3:initial_magmoms:R:1 pbc="T T T"
Si       1.34985457       1.39514054      -1.31012670       0.00000000
Si      -1.32351364       1.35207001       1.38447969       0.00000000
Si      -1.33705063      -1.32504490      -1.40461641       0.00000000
Si       1.38520387      -1.35628912       1.33925814       0.00000000
Si       2.66963780      -0.09394443      -2.51863621       0.00000000
Si       0.02164941      -2.71801910       2.66850918       0.00000000
Si       2.71047683       2.67753683       0.09992504       0.00000000
Si      -0.03319902       2.71876030      -2.67594302       0.00000000
Si      -2.71081892      -0.00721647       2.68840666       0.00000000
Si      -2.69444747       2.71204719       0.07098325       0.00000000
