10
Lattice="16.290000149 0.0 0.0 0.0 16.290000149 0.0 0.0 0.0 29.1751946751" Properties=species:S:1:pos:R:3:initial_magmoms:R:1 pbc="T T T"
Si      -1.31728190       1.43566052      -1.27443085       0.00000000
Si       1.31428943       1.38414828       1.36286087       0.00000000
Si      -1.39856900      -1.33348312       1.33508608       0.00000000
Si       1.28147648      -1.34514676      -1.45607562       0.00000000
Si      -2.64198471       0.10006589      -2.61231776       0.00000000
Si       2.64754123      -2.69218316      -0.08393704       0.00000000
Si      -0.02961357      -2.68993514       2.67536535       0.00000000
Si       2.66045920       0.02445129       2.71895309       0.00000000
Si       2.69341387       0.04520475      -2.71213193       0.00000000
Si       2.63876092       2.76840408       0.00198391       0.00000000
