10
Lattice="16.290000149 0.0 0.0 0.0 16.290000149 0.0 0.0 0.0 29.1751946751" Properties=species:S:1:pos:R:3:initial_magmoms:R:1 pbc="T T T"
Si      -1.38737044      -1.36107838       1.31154170       0.00000000
Si      -1.37235106       1.34094394      -1.35116162       0.00000000
Si       1.35130438      -1.37117818      -1.34946945       0.00000000
Si       1.37428957       1.36516717       1.33960824       0.00000000
Si       2.76915342      -0.08641845       2.53208597       0.00000000
Si       0.00449604       2.69656517      -2.68283420       0.00000000
Si      -0.07024248      -2.79951798       2.59326635       0.00000000
Si      -2.67687056       0.00886176       2.72073278       0.00000000
Si      -2.69265557       2.70974378       0.03209271       0.00000000
Si       2.72523557      -0.02818170      -2.69132418       0.00000000
