10
Lattice="16.290000149 0.0 0.0 0.0 16.290000149 0.0 0.0 0.0 29.1751946751" Properties=species:S:1:pos:R:3:initial_magmoms:R:1 pbc="T T T"
Si      -1.35172792      -0.58479472      -0.28130723       0.00000000
H        0.94931605      -1.76208932      -0.45533726       0.00000000
H        1.61552818      -0.84903481       1.16309831       0.00000000
Si       1.08579367      -1.10817613       2.55052469       0.00000000
Si      -2.70482420       0.76677031       1.04896495       0.00000000
Si      -1.80949322      -0.15571611      -2.49252441       0.00000000
Si       2.08011899      -1.82685836      -1.46144385       0.00000000
Si      -1.15714387       2.07666551       2.23359455       0.00000000
Si       0.02295261       1.13568994      -3.13154870       0.00000000
Si      -1.77951962      -2.79826365       0.33073001       0.00000000
