10
Lattice="16.290000149 0.0 0.0 0.0 16.290000149 0.0 0.0 0.0 29.1751946751" Properties=species:S:1:pos:R:3:initial_magmoms:R:1 pbc="T T T"
Si      -1.33990138      -1.29192733      -1.42815495       0.00000000
Si      -1.13427271       1.10343574       1.75319580       0.00000000
Si       1.35329176       1.38129427      -1.35784274       0.00000000
Si       1.34039008      -1.41618745       1.37123415       0.00000000
Si       0.72684352       1.92697670       3.01090927       0.00000000
Si       2.41531832       0.26213868       2.76081950       0.00000000
Si      -2.79743286      -0.41231619       2.48814813       0.00000000
Si       0.04873968      -2.64315026      -2.74774901       0.00000000
Si       2.73380411       0.02818170      -2.71387661       0.00000000
Si      -0.06027300      -3.23117040       2.12185356       0.00000000
