10
Lattice="16.290000149 0.0 0.0 0.0 16.290000149 0.0 0.0 0.0 29.1751946751" Properties=species:S:1:pos:R:3:initial_magmoms:R:1 pbc="T T T"
Si       2.07055676      -0.72087812       0.84368828       0.00000000
Si       0.75834838       0.59133352      -2.15260421       0.00000000
Si      -1.29153311      -1.98425397      -0.11413336       0.00000000
Si      -0.59640949       1.52231518       1.75611332       0.00000000
H        0.68507596       1.55914687       2.57500268       0.00000000
H        0.14051754       1.89406927      -2.59338305       0.00000000
Si      -0.07931601       3.51599942       0.06228904       0.00000000
Si       1.28573713      -2.22138750       2.55052469       0.00000000
Si       3.11764539      -1.39009250      -1.22915095       0.00000000
Si      -1.95676459       0.14005816       3.09274569       0.00000000
