10
Lattice="16.2900001489832 0.0 0.0 0.0 16.2900001489832 0.0 0.0 0.0 29.17179006505858" Properties=species:S:1:pos:R:3:initial_magmoms:R:1 pbc="T T T"
Si      -0.72233119       2.29038379       0.06111490       0.00000000
Si      -2.14804829      -1.06496365      -0.33611737       0.00000000
Si       0.98956864      -1.11650358       2.09552637       0.00000000
Si       1.21424032      -0.74595820      -2.14902743       0.00000000
H       -1.90408925      -1.40097911      -1.80127052       0.00000000
H       -0.05506020      -1.31615217      -3.05463648       0.00000000
H       -1.37235106       0.19795934      -3.15822551       0.00000000
Si       1.73960912      -2.82114132      -1.17279348       0.00000000
Si      -1.98228125       2.13106759       2.16760986       0.00000000
H        0.28911492       1.80088558      -3.23520986       0.00000000
