10
Lattice="16.2900001489832 0.0 0.0 0.0 16.2900001489832 0.0 0.0 0.0 29.17179006505858" Properties=species:S:1:pos:R:3:initial_magmoms:R:1 pbc="T T T"
Si       1.26930052       0.57019397       0.90560905       0.00000000
Si      -0.93136447      -1.32151488      -0.68171556       0.00000000
H       -1.31729086       1.51411151      -0.10358903       0.00000000
H       -1.84902905      -0.08482693       1.25336596       0.00000000
H        2.16966512      -1.44478131      -0.81611000       0.00000000
Si       0.11565900      -2.82618961       0.88944788       0.00000000
H        1.84762811      -2.12744634      -0.97168316       0.00000000
Si       1.79466932      -1.50498915       1.88184301       0.00000000
H        0.34417512       3.11703776      -0.18057338       0.00000000
Si      -0.76426165      -0.71448431      -2.98409909       0.00000000
