10
Lattice="16.2900001489832 0.0 0.0 0.0 16.2900001489832 0.0 0.0 0.0 29.17179006505858" Properties=species:S:1:pos:R:3:initial_magmoms:R:1 pbc="T T T"
Si       1.87794380       0.87259015       1.13084036       0.00000000
Si       0.03665250       0.50290488      -2.30951428       0.00000000
Si      -0.95135230      -1.92566861       1.04459104       0.00000000
Si      -1.77857480       1.64015866       0.02606587       0.00000000
Si       0.51647445       2.18655785       2.55663493       0.00000000
Si      -2.29767194      -0.63912187       2.52765860       0.00000000
Si      -2.07461297       1.67962934      -2.33897779       0.00000000
Si      -0.80611066       3.52043193       1.11593649       0.00000000
Si      -3.66135672       0.75812032       1.16085521       0.00000000
Si      -2.44068185      -3.10190599      -0.44852911       0.00000000
