10
Lattice="16.2900001489832 0.0 0.0 0.0 16.2900001489832 0.0 0.0 0.0 29.17179006505858" Properties=species:S:1:pos:R:3:initial_magmoms:R:1 pbc="T T T"
Si      -2.12910302       0.53076078      -0.78221238       0.00000000
Si       0.95338855       1.40955742      -1.71413438       0.00000000
Si       0.31509747      -2.17158734      -1.03005591       0.00000000
Si      -0.64925425       0.63747658       2.35217978       0.00000000
Si       0.42639075      -3.22785538       1.06322423       0.00000000
Si       1.45047790       3.20653992      -0.37856232       0.00000000
Si      -2.08969751      -0.28017171      -2.98923333       0.00000000
Si      -3.62669160      -0.48739680       0.65079346       0.00000000
Si      -2.50914872       2.83375956      -0.64942239       0.00000000
Si       1.75542671      -2.13908879       2.74728250       0.00000000
