10
Lattice="16.2900001489832 0.0 0.0 0.0 16.2900001489832 0.0 0.0 0.0 29.17179006505858" Properties=species:S:1:pos:R:3:initial_magmoms:R:1 pbc="T T T"
Si       2.21874689       0.55550530       0.36736035       0.00000000
Si      -1.13565736       1.56307438      -1.28676766       0.00000000
Si      -0.24594642      -1.57757248      -1.69289732       0.00000000
H       -2.12204945      -1.54145755       0.07415469       0.00000000
H       -2.61654869      -0.94986991      -0.02963854       0.00000000
H        2.04674078       2.08463132      -0.17561418       0.00000000
H        2.57038283      -1.57713265       0.56062346       0.00000000
H       -0.77564836       1.22508946      -2.71930675       0.00000000
Si       0.41748012      -3.54817217      -0.60178486       0.00000000
Si      -1.05552685       0.32268861       3.51444224       0.00000000
