10
Lattice="16.2900001489832 0.0 0.0 0.0 16.2900001489832 0.0 0.0 0.0 29.17179006505858" Properties=species:S:1:pos:R:3:initial_magmoms:R:1 pbc="T T T"
Si      -1.88278193      -0.88203835       1.13478934       0.00000000
Si       0.97246414       1.88027327       1.08987062       0.00000000
Si      -0.29603817       0.03947067      -2.36504366       0.00000000
Si       1.77857480      -1.64015866      -0.02606587       0.00000000
Si       1.81522730      -1.13725378      -2.33558015       0.00000000
H       -0.04282641       3.01088073      -1.24560539       0.00000000
Si      -0.51909714      -2.27928053       2.50159273       0.00000000
Si       2.29504925       0.54639919       2.53056907       0.00000000
Si       0.03129309       2.43960671      -2.66513387       0.00000000
Si      -2.37400688      -1.33517728      -2.50900644       0.00000000
