10
Lattice="16.2900001489832 0.0 0.0 0.0 16.2900001489832 0.0 0.0 0.0 29.17179006505858" Properties=species:S:1:pos:R:3:initial_magmoms:R:1 pbc="T T T"
Si       0.86791492      -0.76859479       1.16246666       0.00000000
Si       0.40387797       0.30087630      -1.61337502       0.00000000
Si      -1.44604702      -0.85744045      -2.40716860       0.00000000
Si       2.93824362      -0.72736480       0.13690321       0.00000000
Si       0.79900822       1.01169046       2.77035739       0.00000000
Si      -0.89738353       2.98429545      -0.37118186       0.00000000
Si       0.41384745      -3.05372343       0.59443357       0.00000000
Si       0.90363889       2.56372022      -1.81556470       0.00000000
Si      -0.78240871       2.51626745       1.98327332       0.00000000
Si       2.51357960      -0.48466008      -2.13630853       0.00000000
