10
Lattice="16.2900001489832 0.0 0.0 0.0 16.2900001489832 0.0 0.0 0.0 29.17179006505858" Properties=species:S:1:pos:R:3:initial_magmoms:R:1 pbc="T T T"
H       -0.86791492       0.76859479      -1.16246666       0.00000000
Si       2.07032870       0.04122999      -1.02556345       0.00000000
Si      -0.45406746      -2.28512864      -0.56803310       0.00000000
Si      -0.06890670       1.78028525       1.60789072       0.00000000
H        1.57594348      -0.57058984       1.85538419       0.00000000
H       -1.03342132      -1.35969373       2.02933558       0.00000000
Si      -0.46403694       1.06947109      -2.77584168       0.00000000
Si       2.24295383      -1.92955052       1.54032886       0.00000000
Si       2.90730891       2.10098648      -0.26584252       0.00000000
Si       1.64566469       0.28393470      -3.29877519       0.00000000
