10
Lattice="16.2900001489832 0.0 0.0 0.0 16.2900001489832 0.0 0.0 0.0 29.17179006505858" Properties=species:S:1:pos:R:3:initial_magmoms:R:1 pbc="T T T"
Si      -1.25955503       1.38860848      -1.38772831       0.00000000
Si       1.32336296       1.40861260       1.36618786       0.00000000
Si      -1.37462759      -1.29807844       1.42879052       0.00000000
Si       1.36711138      -1.18532394      -1.53726582       0.00000000
Si       2.21348929       0.76707982      -2.89268929       0.00000000
Si       0.32083888       2.41657265      -2.83332470       0.00000000
Si       2.65677278      -2.64742606      -0.09722666       0.00000000
Si      -2.54437992       0.03072294      -2.81978899       0.00000000
Si      -2.74007169      -2.63511832       0.05460667       0.00000000
Si      -2.68662420       2.71046054       0.00394111       0.00000000
