10
Lattice="16.2900001489832 0.0 0.0 0.0 16.2900001489832 0.0 0.0 0.0 29.17179006505858" Properties=species:S:1:pos:R:3:initial_magmoms:R:1 pbc="T T T"
H        1.21357243      -1.07175169      -0.19156910       0.00000000
Si      -0.39493476       0.32065236      -2.25841960       0.00000000
Si      -1.61802055      -1.23895225       1.16418401       0.00000000
Si       1.32771646       1.60971265       1.09776567       0.00000000
H        0.25337466      -2.78624163      -1.18174717       0.00000000
Si       2.57520467      -2.24946983      -0.12841218       0.00000000
Si       1.87919813       0.86218084      -2.78065299       0.00000000
Si       2.55849113       0.19561032       2.55424022       0.00000000
Si      -0.20009007      -2.62526384       2.50101629       0.00000000
Si      -0.16413804       2.88241779       2.46575343       0.00000000
