10
Lattice="16.2900001489832 0.0 0.0 0.0 16.2900001489832 0.0 0.0 0.0 29.17179006505858" Properties=species:S:1:pos:R:3:initial_magmoms:R:1 pbc="T T T"
Si      -0.06134814       2.25999317       0.45607177       0.00000000
Si       1.80102242      -0.42057522      -1.44438284       0.00000000
Si      -1.82347004      -0.71806321      -1.31173871       0.00000000
Si       0.11497482      -0.46802799       2.35445518       0.00000000
H        0.89738353      -2.98429545       0.37118186       0.00000000
H       -0.32278635       3.03300255      -0.82066080       0.00000000
H        2.85669588       1.30882006       0.68731655       0.00000000
Si       1.30126150      -2.68341914      -1.24219316       0.00000000
Si       2.13825800       2.63107937       0.95896425       0.00000000
Si      -3.39374460       0.81244747      -0.57138785       0.00000000
