10
Lattice="16.2900001489832 0.0 0.0 0.0 16.2900001489832 0.0 0.0 0.0 29.17179006505858" Properties=species:S:1:pos:R:3:initial_magmoms:R:1 pbc="T T T"
Si       1.58141692      -1.50457699       0.78708407       0.00000000
Si      -2.23314725      -0.52461945       0.48463095       0.00000000
Si       0.14439456       1.96050152       1.32690804       0.00000000
Si      -0.11497482       0.46802799      -2.35445518       0.00000000
H        0.78240871      -2.51626745      -1.98327332       0.00000000
Si      -0.17632296       2.72802117      -1.89838341       0.00000000
Si      -3.18546066       1.41103981      -0.52328357       0.00000000
Si      -1.66899197       3.13745403      -0.14632570       0.00000000
H        2.74172106       1.77684806      -1.66713863       0.00000000
Si       0.95939956      -2.14829264       2.93972880       0.00000000
