10
Lattice="16.2900001489832 0.0 0.0 0.0 16.2900001489832 0.0 0.0 0.0 29.17179006505858" Properties=species:S:1:pos:R:3:initial_magmoms:R:1 pbc="T T T"
Si       0.39493476      -0.32065236       2.25841960       0.00000000
Si      -1.84404431       1.44269128      -0.35904639       0.00000000
Si      -0.67766401      -1.97778521      -1.16182488       0.00000000
Si       2.27413289       0.54152847      -0.52223339       0.00000000
H        1.60850719      -1.39240405       2.06685050       0.00000000
H        0.64830943      -3.10689399       1.07667243       0.00000000
Si      -0.89994106       2.40432257      -2.41303213       0.00000000
Si       0.93009385       3.48850353       0.92751707       0.00000000
Si      -2.93760831      -2.25652340      -0.49262402       0.00000000
Si      -0.57627505      -1.35897697      -3.45697381       0.00000000
