10
Lattice="16.2900001489832 0.0 0.0 0.0 16.2900001489832 0.0 0.0 0.0 29.17179006505858" Properties=species:S:1:pos:R:3:initial_magmoms:R:1 pbc="T T T"
Si      -0.71843788       1.32225931       0.27164771       0.00000000
Si       1.18245853      -1.71211160      -1.29651104       0.00000000
Si      -1.05567346      -1.72939529      -2.13169939       0.00000000
Si      -0.63416971       1.45889983       2.56067056       0.00000000
Si       2.65652435       0.05975172      -1.51042777       0.00000000
Si      -2.91804402       0.95117311      -0.23124478       0.00000000
Si      -0.08707005       2.80937343      -1.38061331       0.00000000
Si      -2.85669588      -1.30882006      -0.68731655       0.00000000
Si       1.27042453       0.12621492       3.02727334       0.00000000
Si       2.14944923       2.35180361      -1.29910733       0.00000000
