10
Lattice="16.2900001489832 0.0 0.0 0.0 16.2900001489832 0.0 0.0 0.0 29.17179006505858" Properties=species:S:1:pos:R:3:initial_magmoms:R:1 pbc="T T T"
H        0.71843788      -1.32225931      -0.27164771       0.00000000
Si      -2.19960614      -0.37108620      -0.50289249       0.00000000
Si       0.08426817       0.13664052       2.28902285       0.00000000
Si       0.63136783       1.48711411      -1.65226102       0.00000000
H       -2.12260331       1.89706826      -1.00199265       0.00000000
H       -2.46104435       0.40192317      -1.77962505       0.00000000
Si       2.86788711       1.02954430      -1.57075504       0.00000000
Si      -1.87888862      -1.13860585       2.72239896       0.00000000
Si      -2.13825800      -2.63107937      -0.95896425       0.00000000
Si       1.98886241      -1.19604439       2.75562563       0.00000000
