10
Lattice="16.2900001489832 0.0 0.0 0.0 16.2900001489832 0.0 0.0 0.0 29.17179006505858" Properties=species:S:1:pos:R:3:initial_magmoms:R:1 pbc="T T T"
Si       1.67901032       1.32120046       0.99239513       0.00000000
Si       1.15088851      -1.59526342      -1.38064248       0.00000000
Si      -1.04702347       1.50467473      -1.57116344       0.00000000
Si      -0.94410325      -0.96163129       2.05398574       0.00000000
H        1.73196911       0.69874327      -1.86113103       0.00000000
H       -0.11565900       2.82618961      -0.88944788       0.00000000
H        2.05400612       1.38140830      -1.70555788       0.00000000
H        3.02435256       0.90774397       0.44276943       0.00000000
H       -3.26549506       0.68339809       0.28541679       0.00000000
H       -1.96468805       2.74136267       0.36391808       0.00000000
