10
Lattice="16.2900001489832 0.0 0.0 0.0 16.2900001489832 0.0 0.0 0.0 29.17179006505858" Properties=species:S:1:pos:R:3:initial_magmoms:R:1 pbc="T T T"
H        0.25559010       1.28106190      -0.76494268       0.00000000
Si       0.98243362       0.60993019       2.06054939       0.00000000
Si       1.47336535      -1.54518796      -1.21424659       0.00000000
Si      -2.51406830       0.12833262      -0.09947580       0.00000000
H       -2.10997856      -0.47526075       1.93318536       0.00000000
H       -1.77153752       1.01988433       2.71081776       0.00000000
Si       0.01923849      -3.46082682      -1.11981751       0.00000000
Si      -2.83200024      -0.57384784      -2.27274499       0.00000000
Si       0.59968378       2.87838601       2.43050603       0.00000000
Si       0.35106579      -0.87718393       3.71281041       0.00000000
