10
Lattice="16.2900001489832 0.0 0.0 0.0 16.2900001489832 0.0 0.0 0.0 29.17179006505858" Properties=species:S:1:pos:R:3:initial_magmoms:R:1 pbc="T T T"
H       -0.32203701      -0.68266504      -0.15557316       0.00000000
H        0.97034644      -0.47366433       2.14832731       0.00000000
Si       0.89894737       1.26643348      -2.04336721       0.00000000
Si       0.71403958       2.55510444      -0.04040293       0.00000000
Si      -0.37499580      -0.06020784       2.69795300       0.00000000
H       -2.16966512       1.44478131       0.81611000       0.00000000
Si      -0.90036460       2.01497528       1.72171905       0.00000000
Si       1.01156014      -1.08133021      -2.47292182       0.00000000
Si      -2.05400612      -1.38140830       1.70555788       0.00000000
Si      -3.10102959       0.12326643       0.13439444       0.00000000
