10
Lattice="16.2900001489832 0.0 0.0 0.0 16.2900001489832 0.0 0.0 0.0 29.17179006505858" Properties=species:S:1:pos:R:3:initial_magmoms:R:1 pbc="T T T"
Si       1.28482489       1.35788554       1.43206068       0.00000000
Si      -1.45450153      -1.37023173       1.31178539       0.00000000
Si      -0.53304138       1.36624231      -1.89132384       0.00000000
Si       1.05230143      -1.59301378      -1.45832696       0.00000000
Si      -0.50375196      -0.32979105      -3.48999628       0.00000000
Si      -1.08541900      -2.41627943      -2.41892483       0.00000000
Si       2.47233332      -2.71669961       0.10846072       0.00000000
Si       1.35281935       2.90400204      -1.90646400       0.00000000
Si       2.86521880       2.38584971      -0.01353571       0.00000000
Si       2.54437992      -0.03072294       2.81978899       0.00000000
