10
Lattice="16.2900001489832 0.0 0.0 0.0 16.2900001489832 0.0 0.0 0.0 29.17179006505858" Properties=species:S:1:pos:R:3:initial_magmoms:R:1 pbc="T T T"
Si      -1.35721765       1.36393891       1.39811638       0.00000000
Si      -1.32224302      -1.34586986      -1.46142208       0.00000000
Si       1.36137160      -1.35738673       1.42979695       0.00000000
Si       1.39470094       1.31081722      -1.44113894       0.00000000
Si       2.72372060       2.67904691       0.01003510       0.00000000
Si      -2.70425405      -2.70150756      -0.01496513       0.00000000
Si       2.69237864      -2.72045283       0.01277724       0.00000000
Si      -2.73535166       2.71366316      -0.00014586       0.00000000
Si      -2.70932024      -0.00217309       2.78555589       0.00000000
Si       0.00552231       2.68678466       2.81291903       0.00000000
