10
Lattice="16.2900001489832 0.0 0.0 0.0 16.2900001489832 0.0 0.0 0.0 29.17179006505858" Properties=species:S:1:pos:R:3:initial_magmoms:R:1 pbc="T T T"
Si       1.34750881       1.38335496      -1.38974408       0.00000000
Si      -1.38451969       1.34266254       1.40462169       0.00000000
Si      -1.37730322      -1.34914562      -1.43186814       0.00000000
Si       1.29518533      -1.50557883       1.35750925       0.00000000
Si       2.69490359       2.68124443       0.09527507       0.00000000
Si       2.64218915      -2.74138711      -0.13171063       0.00000000
Si      -2.73745308      -0.20877101       2.64556047       0.00000000
Si      -2.73315252       2.69502577      -0.04874606       0.00000000
Si      -2.69827562      -2.77958716      -0.04743333       0.00000000
Si       2.70795188       0.03107969      -2.78969828       0.00000000
