10
Lattice="16.2900001489832 0.0 0.0 0.0 16.2900001489832 0.0 0.0 0.0 29.17179006505858" Properties=species:S:1:pos:R:3:initial_magmoms:R:1 pbc="T T T"
Si       0.87614137       1.73511308      -1.35675078       0.00000000
Si      -2.26944137      -0.07868070      -0.69463867       0.00000000
Si       1.80698456      -1.53577234       0.26391718       0.00000000
Si      -0.70947838       0.21714570       2.27286168       0.00000000
H       -0.38937987       2.53519643      -1.75471234       0.00000000
H       -1.63238833       1.47411469       2.21259276       0.00000000
Si       2.47497230       2.18514062       0.34676507       0.00000000
Si       3.69284529       0.00198738       0.24877703       0.00000000
Si       1.83627398      -3.23180571      -1.33475525       0.00000000
Si      -2.57991248      -0.39887694      -3.02727334       0.00000000
