10
Lattice="16.2900001489832 0.0 0.0 0.0 16.2900001489832 0.0 0.0 0.0 29.17179006505858" Properties=species:S:1:pos:R:3:initial_magmoms:R:1 pbc="T T T"
Si      -1.86592178      -0.68886175      -1.31579359       0.00000000
Si      -0.82710847      -0.59832193       2.18867189       0.00000000
Si       1.89108494      -1.55764004      -0.12115044       0.00000000
Si       0.83455300       1.97989639      -1.20111928       0.00000000
Si      -0.51891795      -1.92467003      -2.80501347       0.00000000
Si       2.27670182       0.83242715      -2.71481430       0.00000000
Si       0.90705620      -3.24248218      -1.46669926       0.00000000
Si      -2.87547825       0.53645088       2.27752917       0.00000000
Si      -3.17795097      -2.11234713       0.13734079       0.00000000
Si       3.66132414      -0.54203998      -1.35470876       0.00000000
