10
Lattice="16.2900001489832 0.0 0.0 0.0 16.2900001489832 0.0 0.0 0.0 29.17179006505858" Properties=species:S:1:pos:R:3:initial_magmoms:R:1 pbc="T T T"
Si      -1.34521192      -1.33871221       1.35258797       0.00000000
Si      -1.21502224       1.45171594      -1.37197846       0.00000000
Si       1.38373777       1.40844970       1.25538757       0.00000000
Si       1.40010922      -1.29093364      -1.36212715       0.00000000
H       -1.02094318      -1.03581595      -2.89660414       0.00000000
Si       2.28258740       0.46382517      -2.65698239       0.00000000
Si       0.59476420       2.32525091      -2.67713193       0.00000000
Si      -0.09803322      -2.29278494      -2.83633522       0.00000000
Si      -2.65165364      -2.63469575      -0.09377564       0.00000000
Si       2.71772588       0.01203831       2.59874850       0.00000000
