10
Lattice="16.2900001489832 0.0 0.0 0.0 16.2900001489832 0.0 0.0 0.0 29.17179006505858" Properties=species:S:1:pos:R:3:initial_magmoms:R:1 pbc="T T T"
Si      -0.00638568      -2.30523050      -0.02470851       0.00000000
Si       1.49758858       1.01815759      -1.43300584       0.00000000
Si      -2.06799597       0.76347973      -0.69326759       0.00000000
Si       0.76543453       0.56275435       2.18406275       0.00000000
Si      -3.27975044       0.09485667       1.17597320       0.00000000
Si       2.97743736       1.12487338       1.70138631       0.00000000
Si       3.62669160       0.48739680      -0.65079346       0.00000000
Si       1.11754288       3.32115636      -1.30021585       0.00000000
Si      -1.81688888      -3.04441858       1.28743861       0.00000000
Si       1.84422350      -3.16012319       1.11272876       0.00000000
