10
Lattice="16.2900001489832 0.0 0.0 0.0 16.2900001489832 0.0 0.0 0.0 29.17179006505858" Properties=species:S:1:pos:R:3:initial_magmoms:R:1 pbc="T T T"
Si      -1.45267705      -1.08515836      -1.44463664       0.00000000
Si       1.21502224      -1.45171594       1.37197846       0.00000000
Si      -1.46939059       1.35992179       1.23801576       0.00000000
Si       1.80978644       0.87353497      -1.30515347       0.00000000
H        0.19407906      -2.48753189      -1.52462568       0.00000000
H       -2.81430930       0.09255978      -1.50779356       0.00000000
Si      -0.90842815       0.09492183      -3.52379763       0.00000000
Si       2.59876001      -0.04326624       2.62736602       0.00000000
Si      -0.09977625       2.64634310       2.63763449       0.00000000
Si       2.61513146      -2.74264959       0.00985131       0.00000000
