10
Lattice="16.2900001489832 0.0 0.0 0.0 16.2900001489832 0.0 0.0 0.0 29.17179006505858" Properties=species:S:1:pos:R:3:initial_magmoms:R:1 pbc="T T T"
Si      -0.98468164      -1.63383814      -1.47690939       0.00000000
Si       0.86628592       2.18582480      -0.72841960       0.00000000
Si      -2.30040866       0.91261468       0.52290434       0.00000000
Si       1.39202938      -1.36368478       1.63131567       0.00000000
Si      -2.07050789       0.06051735       2.69602767       0.00000000
Si      -1.65105668      -3.05341392       0.35621673       0.00000000
Si       1.88911874       0.43329771       2.96688774       0.00000000
Si      -0.22058289       1.21883410       3.48982125       0.00000000
Si      -1.69046219      -2.24248142       2.56323768       0.00000000
Si      -2.72619668      -0.53115174      -2.76040981       0.00000000
