10
Lattice="16.2900001489832 0.0 0.0 0.0 16.2900001489832 0.0 0.0 0.0 29.17179006505858" Properties=species:S:1:pos:R:3:initial_magmoms:R:1 pbc="T T T"
Si      -0.93281428      -1.86753449      -1.12276852       0.00000000
Si       1.25476984      -1.39004200       1.45908542       0.00000000
Si      -1.51120702       1.25779978       1.36261431       0.00000000
Si       1.03118959       1.70484626      -1.39419569       0.00000000
Si       2.57421098       2.66090636       0.12528409       0.00000000
Si       2.55575441      -2.82776484       0.13916986       0.00000000
Si      -2.69086367       2.71099811      -0.12351628       0.00000000
Si      -0.16060311       2.61317666       2.78979747       0.00000000
Si       2.60426603      -0.09164754       2.83550966       0.00000000
Si      -2.74260072      -2.74106945       0.18238495       0.00000000
