10
Lattice="16.2900001489832 0.0 0.0 0.0 16.2900001489832 0.0 0.0 0.0 29.17179006505858" Properties=species:S:1:pos:R:3:initial_magmoms:R:1 pbc="T T T"
Si      -0.49443408      -0.48091338       2.22574924       0.00000000
Si      -0.54561238      -2.05765345      -0.96762828       0.00000000
Si       2.29221479       0.06120153      -0.59959697       0.00000000
Si      -1.12502814       1.67697407      -1.24114298       0.00000000
H        0.57736648       1.96017572       1.50386412       0.00000000
H        0.72847252      -1.24247741       2.55924114       0.00000000
H        1.89543926       0.95203648       2.37846356       0.00000000
H        2.38993850       0.36044883       2.48225679       0.00000000
Si       0.66901402       3.18844173      -1.40920166       0.00000000
Si       1.05707440       3.27055962       0.89073144       0.00000000
