10
Lattice="16.2900001489832 0.0 0.0 0.0 16.2900001489832 0.0 0.0 0.0 29.17179006505858" Properties=species:S:1:pos:R:3:initial_magmoms:R:1 pbc="T T T"
Si      -1.44792037      -1.14111451      -1.47011236       0.00000000
Si      -0.87079825       1.80442703       1.26935210       0.00000000
Si       1.36792018       1.43247745      -1.39808721       0.00000000
Si       0.28580805      -1.89320753       1.55622748       0.00000000
Si      -0.03075552      -2.49771314      -2.79334476       0.00000000
Si      -3.07349949      -2.21009690      -0.09830893       0.00000000
Si       0.80293411       3.57695823       1.09951394       0.00000000
Si      -1.10356606       1.00172098       3.54384740       0.00000000
Si       2.72704376       2.75439468       0.02123706       0.00000000
Si      -1.97599331      -2.67778280       2.05150614       0.00000000
