10
Lattice="16.2900001489832 0.0 0.0 0.0 16.2900001489832 0.0 0.0 0.0 29.17179006505858" Properties=species:S:1:pos:R:3:initial_magmoms:R:1 pbc="T T T"
Si      -0.49120866       1.97076422      -1.14814331       0.00000000
Si       1.08706429      -0.98345989      -1.81819016       0.00000000
Si       1.83813104       0.67455262       1.31725218       0.00000000
Si      -1.92904553      -0.97748146       0.98562727       0.00000000
Si       2.00862218      -2.75771784      -0.56429911       0.00000000
Si       2.64780920       0.76093849      -2.23035838       0.00000000
Si      -1.05002083       1.24810723      -3.34075340       0.00000000
Si      -0.54294571      -1.04394466      -3.55207385       0.00000000
Si       1.55882269       2.80800507      -1.94599177       0.00000000
Si      -1.53039664      -1.04045860       3.29434108       0.00000000
