10
Lattice="16.2900001489832 0.0 0.0 0.0 16.2900001489832 0.0 0.0 0.0 29.17179006505858" Properties=species:S:1:pos:R:3:initial_magmoms:R:1 pbc="T T T"
H       -0.85805947       1.10534167      -0.61383281       0.00000000
Si       2.20757195       0.87904099       0.09040338       0.00000000
Si      -0.39320802      -1.80587684      -1.50036351       0.00000000
Si      -0.69307435      -1.09674055       2.15786648       0.00000000
H       -2.73766485       0.19745109       0.34556903       0.00000000
Si      -2.43441020      -2.56815110      -0.54457898       0.00000000
Si       3.48891078      -1.08434386       0.37013167       0.00000000
Si       2.50289336       1.77259637      -2.11160002       0.00000000
Si      -0.89665048       3.66109283      -0.93256378       0.00000000
Si       2.29594520      -3.15103989       0.73402058       0.00000000
