10
Lattice="16.2900001489832 0.0 0.0 0.0 16.2900001489832 0.0 0.0 0.0 29.17179006505858" Properties=species:S:1:pos:R:3:initial_magmoms:R:1 pbc="T T T"
Si      -0.98402874      -1.68484214      -1.34554882       0.00000000
Si       1.77023920       1.01560006      -1.23355831       0.00000000
Si       0.87862233      -0.62796322       2.14546847       0.00000000
Si      -1.89108494       1.55764004       0.12115044       0.00000000
Si       0.38561688       2.39006719      -2.59366385       0.00000000
Si      -2.41000290      -0.36702999      -2.68386303       0.00000000
Si      -2.71819341       0.95931811       2.30982234       0.00000000
Si       0.84960984       1.68620887       3.26674457       0.00000000
Si      -1.05653194       3.53753643      -1.07996884       0.00000000
Si      -1.94029703      -3.44849529      -0.13766168       0.00000000
