10
Lattice="16.2900001489832 0.0 0.0 0.0 16.2900001489832 0.0 0.0 0.0 29.17179006505858" Properties=species:S:1:pos:R:3:initial_magmoms:R:1 pbc="T T T"
Si      -1.58039391      -1.02796417       1.44559639       0.00000000
Si       0.97438799       1.73864801       1.31698963       0.00000000
Si      -1.51239945       0.51815232      -1.89292829       0.00000000
Si       1.89265041      -1.64949284      -0.05936459       0.00000000
Si       2.35403208       0.40949802       2.80348779       0.00000000
Si      -2.86521880      -2.38584971       0.01353571       0.00000000
Si      -0.32083888      -2.41657265       2.83332470       0.00000000
Si       1.04627250      -3.60189659       1.29605887       0.00000000
Si      -0.31881778       0.34808472      -3.95172737       0.00000000
Si      -3.39826019      -1.01960740      -1.87778813       0.00000000
