10
Lattice="16.2900001489832 0.0 0.0 0.0 16.2900001489832 0.0 0.0 0.0 29.17179006505858" Properties=species:S:1:pos:R:3:initial_magmoms:R:1 pbc="T T T"
Si      -1.30098457       1.43772283       1.31991556       0.00000000
Si       1.35791812      -1.41952690       1.29114635       0.00000000
Si       1.75285777       0.92523943      -1.26445591       0.00000000
Si      -1.80074549      -0.90119539      -1.24178884       0.00000000
Si      -2.68322366      -2.65595420       0.05306640       0.00000000
Si      -2.69959511       0.04342914       2.67058111       0.00000000
Si       2.70774500      -2.65246814      -0.23530841       0.00000000
Si       2.71957806      -0.00733050       2.65815393       0.00000000
Si      -2.55575441       2.82776484      -0.13916986       0.00000000
Si      -3.48856869       0.96023035      -1.26193838       0.00000000
