10
Lattice="16.2900001489832 0.0 0.0 0.0 16.2900001489832 0.0 0.0 0.0 29.17179006505858" Properties=species:S:1:pos:R:3:initial_magmoms:R:1 pbc="T T T"
Si      -1.34713414      -1.35130438      -1.31830236       0.00000000
Si       1.35159760      -1.29378439       1.38393889       0.00000000
Si      -1.30254841       1.24629904       1.49948835       0.00000000
Si       1.41775276       1.37995849      -1.26978968       0.00000000
Si       2.18094269       0.60944149       2.51221622       0.00000000
Si       0.46030653       2.33197868       2.58176176       0.00000000
Si      -0.23615613      -2.24327963       2.86840377       0.00000000
Si      -1.57561768      -0.26658585       3.40636075       0.00000000
Si      -2.65761578       2.67361256       0.12762658       0.00000000
Si      -2.68112225       0.04510701      -2.66166330       0.00000000
