10
Lattice="16.2900001489832 0.0 0.0 0.0 16.2900001489832 0.0 0.0 0.0 29.17179006505858" Properties=species:S:1:pos:R:3:initial_magmoms:R:1 pbc="T T T"
Si      -1.15009030      -1.84795391       0.82477402       0.00000000
Si       0.30133242       1.26907246       2.05486089       0.00000000
Si       2.04743962       0.33539481      -1.27673256       0.00000000
Si      -1.69704335       0.21491397      -1.89424102       0.00000000
Si       1.46258463       2.66435984      -1.72539470       0.00000000
Si      -0.61048405       2.20178900      -2.76119744       0.00000000
Si      -0.13330107      -2.72212418      -2.40445562       0.00000000
Si      -0.71117254       3.30989997       1.37262024       0.00000000
Si       1.69655953      -1.15815385      -3.02237248       0.00000000
Si       0.15240924      -2.70251102       2.54745574       0.00000000
