10
Lattice="16.2900001489832 0.0 0.0 0.0 16.2900001489832 0.0 0.0 0.0 29.17179006505858" Properties=species:S:1:pos:R:3:initial_magmoms:R:1 pbc="T T T"
Si      -1.76285495      -1.08567964      -1.08227341       0.00000000
Si      -0.57216997       0.48202110       2.21346791       0.00000000
Si       0.95626829       1.76365316      -1.20788714       0.00000000
Si       1.72063615      -1.72253720      -0.06954555       0.00000000
Si      -2.03592422      -2.59856453       0.82459899       0.00000000
Si       2.39833763       0.41998878      -2.49342958       0.00000000
Si      -0.46030653      -2.33197868      -2.58176176       0.00000000
Si       1.50089871       0.94459195       3.24927066       0.00000000
Si      -1.65872927      -1.50485392       3.08042434       0.00000000
Si       1.73487361      -2.87792175       1.95229288       0.00000000
