10
Lattice="16.2900001489832 0.0 0.0 0.0 16.2900001489832 0.0 0.0 0.0 29.17179006505858" Properties=species:S:1:pos:R:3:initial_magmoms:R:1 pbc="T T T"
Si      -2.17714223      -0.88972723       0.32555718       0.00000000
Si       1.33946155      -1.97669378      -0.53795698       0.00000000
Si       0.27306927       1.51288489      -1.90687240       0.00000000
Si       0.37719495       1.09371061       2.25582535       0.00000000
Si       1.94093723      -1.84332755       1.74561075       0.00000000
Si       2.03592422       2.59856453      -0.82459899       0.00000000
Si      -2.65895156      -1.40514283      -1.98630719       0.00000000
Si       1.46375425       3.08058564       1.38886893       0.00000000
Si       2.92721529      -1.02719854      -2.02242186       0.00000000
Si      -1.89009614      -1.91886428       2.56186660       0.00000000
