10
Lattice="16.2900001489832 0.0 0.0 0.0 16.2900001489832 0.0 0.0 0.0 29.17179006505858" Properties=species:S:1:pos:R:3:initial_magmoms:R:1 pbc="T T T"
Si       1.54302139       0.95606011       1.51947978       0.00000000
Si      -1.03118959      -1.70484626       1.39419569       0.00000000
Si      -1.72022402       1.82635337      -0.16872963       0.00000000
Si       1.58210110      -0.49125753      -1.91827857       0.00000000
Si      -0.69271597       2.56414376      -2.42432161       0.00000000
Si       2.86503636       2.26372358       0.10306393       0.00000000
Si       0.19701126       2.31458194       2.86899888       0.00000000
Si      -2.54239661      -0.44704647       2.75681001       0.00000000
Si       1.44500446       3.38740942      -1.46372374       0.00000000
Si      -1.06179850       3.61019146       1.30638861       0.00000000
