10
Lattice="16.2900001489832 0.0 0.0 0.0 16.2900001489832 0.0 0.0 0.0 29.17179006505858" Properties=species:S:1:pos:R:3:initial_magmoms:R:1 pbc="T T T"
Si       1.96879313       1.28573387      -0.15828613       0.00000000
Si       0.47242629      -1.86346199      -1.36585238       0.00000000
Si      -0.29532141      -0.89355538       2.20200340       0.00000000
Si      -1.89542297       1.39162050      -0.56193619       0.00000000
Si       1.08962182       3.31986945       0.64014576       0.00000000
Si      -0.76936042       3.42021585      -0.81112162       0.00000000
Si       1.51944976      -3.31742595       0.16277859       0.00000000
Si      -2.50289336      -1.77259637       2.11160002       0.00000000
Si       3.00688968       0.54413650      -2.14546847       0.00000000
H       -3.36095283      -0.66725470       1.49776722       0.00000000
