10
Lattice="16.2900001489832 0.0 0.0 0.0 16.2900001489832 0.0 0.0 0.0 29.17179006505858" Properties=species:S:1:pos:R:3:initial_magmoms:R:1 pbc="T T T"
Si       0.92154160       2.11136321      -0.15752767       0.00000000
Si       1.52857216      -1.65666044      -0.59822590       0.00000000
Si      -0.73391663      -0.05730822       2.26548122       0.00000000
Si      -1.89221384       0.03375288      -1.51031109       0.00000000
H        1.04886424      -2.96704434       0.01490678       0.00000000
Si      -2.32559300       1.61362225       1.75127007       0.00000000
Si      -0.72324668       3.24967584       1.14694727       0.00000000
Si       1.14051178      -1.73877833      -2.89815900       0.00000000
Si      -2.43693515      -2.23886504      -1.57586010       0.00000000
Si      -3.52999416       1.03412179      -0.13369431       0.00000000
