10
Lattice="16.2900001489832 0.0 0.0 0.0 16.2900001489832 0.0 0.0 0.0 29.17179006505858" Properties=species:S:1:pos:R:3:initial_magmoms:R:1 pbc="T T T"
Si       1.33428133      -1.43501869      -1.31783562       0.00000000
Si      -1.38462232       1.37446713      -1.36010554       0.00000000
Si      -1.77023920      -1.01560006       1.23355831       0.00000000
Si       1.52381548       1.29795789       1.32693721       0.00000000
H        0.55381114       2.17153847       2.09080054       0.00000000
Si      -2.82677115       2.52193637       0.15358947       0.00000000
Si       2.65579130      -0.01669725      -2.74774925       0.00000000
Si      -2.75426794      -2.70044219      -0.11199050       0.00000000
Si      -0.89161687      -1.64356327       3.37902679       0.00000000
Si      -0.02987586      -2.68310963      -2.80250470       0.00000000
