10
Lattice="16.2900001489832 0.0 0.0 0.0 16.2900001489832 0.0 0.0 0.0 29.17179006505858" Properties=species:S:1:pos:R:3:initial_magmoms:R:1 pbc="T T T"
Si       1.61802055       1.23895225      -1.16418401       0.00000000
Si      -1.23452137       1.38155491       1.45125572       0.00000000
Si       1.41793048      -1.38631159       1.33683229       0.00000000
Si      -1.84228499      -0.79418638      -1.43221237       0.00000000
H        2.83159299       0.16720056      -1.35575311       0.00000000
H        1.87139522      -1.54728937      -2.34593118       0.00000000
Si      -2.57000491       2.68315850       0.01376325       0.00000000
Si      -2.63799774      -2.66452274      -0.12648305       0.00000000
Si      -2.62616468      -0.01938510       2.76697929       0.00000000
Si      -3.59288497       0.91318483      -1.15563055       0.00000000
