10
Lattice="16.2900001489832 0.0 0.0 0.0 16.2900001489832 0.0 0.0 0.0 29.17179006505858" Properties=species:S:1:pos:R:3:initial_magmoms:R:1 pbc="T T T"
Si      -0.92154160      -2.11136321       0.15752767       0.00000000
Si       2.03504456      -0.09466119       1.17690670       0.00000000
Si      -1.64478828       1.13831263       1.30447494       0.00000000
Si       0.43624620       0.20834910      -2.36653230       0.00000000
Si       2.86226706       2.07337493       0.84020590       0.00000000
Si      -1.65545823      -2.16867143       2.42300888       0.00000000
Si      -2.81375544      -2.07761033      -1.35278342       0.00000000
Si      -3.24713460      -0.49774095       1.90879774       0.00000000
Si       0.60703057      -3.76802364      -0.44069823       0.00000000
Si      -2.49028099       2.95222044       0.05379278       0.00000000
