10
Lattice="16.2900001489832 0.0 0.0 0.0 16.2900001489832 0.0 0.0 0.0 29.17179006505858" Properties=species:S:1:pos:R:3:initial_magmoms:R:1 pbc="T T T"
Si       1.37880190       1.35542575       1.32295818       0.00000000
Si       1.23452137      -1.38155491      -1.45125572       0.00000000
Si      -1.33548353       1.30160359      -1.43749246       0.00000000
Si      -1.39164331      -1.40094001       1.31572358       0.00000000
Si      -2.35836359      -0.46837008      -2.60688626       0.00000000
Si      -0.60776362      -2.17574129      -2.88346809       0.00000000
Si       0.01127268       2.71767701       2.67317449       0.00000000
Si      -2.73200803       2.66282858      -0.06721764       0.00000000
Si       2.69037497      -0.03787425       2.72725898       0.00000000
Si       2.65245185      -2.76786651      -0.11442343       0.00000000
