10
Lattice="16.2900001489832 0.0 0.0 0.0 16.2900001489832 0.0 0.0 0.0 29.17179006505858" Properties=species:S:1:pos:R:3:initial_magmoms:R:1 pbc="T T T"
Si      -1.28232275      -1.36099693       1.40497175       0.00000000
Si       1.36752922      -1.36225126      -1.35021630       0.00000000
Si       1.36415719       1.24809094       1.48466908       0.00000000
Si      -1.38760176       1.35298225      -1.38848969       0.00000000
Si       2.68566716       2.66641238       0.05475545       0.00000000
Si      -0.01127268      -2.71767701      -2.67317449       0.00000000
Si      -2.72439208      -0.01733256       2.69051420       0.00000000
Si      -2.72981600       2.69392993       0.05192579       0.00000000
Si       2.67910229      -2.75555127       0.05408450       0.00000000
Si      -2.72321415      -2.73300590       0.04684989       0.00000000
