10
Lattice="16.2900001489832 0.0 0.0 0.0 16.2900001489832 0.0 0.0 0.0 29.17179006505858" Properties=species:S:1:pos:R:3:initial_magmoms:R:1 pbc="T T T"
Si      -0.95626829      -1.76365316       1.20788714       0.00000000
Si       1.44206933      -1.34366437      -1.28554244       0.00000000
Si      -1.42597416       1.31781214      -1.33831421       0.00000000
Si       0.98402874       1.68484214       1.34554882       0.00000000
Si      -0.90705620       3.24248218       1.46669926       0.00000000
Si       0.76436786      -3.48619035       1.13834159       0.00000000
Si      -2.77297798       2.55362042       0.15090567       0.00000000
Si      -0.00542392       2.71126249      -2.63858841       0.00000000
Si       0.00117793      -2.71567334      -2.64366430       0.00000000
Si       2.72439208       0.01733256      -2.69051420       0.00000000
