10
Lattice="16.2900001489832 0.0 0.0 0.0 16.2900001489832 0.0 0.0 0.0 29.17179006505858" Properties=species:S:1:pos:R:3:initial_magmoms:R:1 pbc="T T T"
Si      -0.30172338       0.94638385       2.11081239       0.00000000
Si      -2.08900030       0.32001705      -1.09128749       0.00000000
Si      -0.60375628      -2.04001301       1.09306697       0.00000000
Si       2.06311223       0.78413545      -1.18886713       0.00000000
H        2.46720197       0.18054207       0.84379403       0.00000000
H       -1.65963662       0.33840846       2.47852280       0.00000000
Si       2.72864018      -0.59246731       2.12052659       0.00000000
Si       1.37231848       3.05995924      -1.28297533       0.00000000
Si      -1.77920685      -1.08590770      -2.97313050       0.00000000
H        2.80564302       1.67568716       1.62142644       0.00000000
