10
Lattice="10.86 0.0 0.0 0.0 10.86 0.0 0.0 0.0 10.86" Properties=species:S:1:pos:R:3:initial_magmoms:R:1 pbc="T T T"
Si      -1.53475692      -1.19792316      -1.14136428       0.00000000
Si       1.23368514      -1.40184138       1.39870284       0.00000000
Si      -1.77446970       1.43082672       1.22700624       0.00000000
Si       2.56305774       0.00162900       2.64761370       0.00000000
Si       2.56305774      -2.71337100      -0.06738630       0.00000000
Si      -0.15194226      -2.71337100       2.64761370       0.00000000
Si      -0.15194226       2.71662900       2.64761370       0.00000000
Si      -0.15194226      -2.71337100      -2.78238630       0.00000000
Si      -2.86694226       0.00162900       2.64761370       0.00000000
Si      -2.86694226      -2.71337100      -0.06738630       0.00000000
