10
Lattice="10.86 0.0 0.0 0.0 10.86 0.0 0.0 0.0 10.86" Properties=species:S:1:pos:R:3:initial_magmoms:R:1 pbc="T T T"
Si       1.20835962      -1.32310638      -1.44477096       0.00000000
Si      -1.50664038      -1.32310638       1.27022904       0.00000000
Si       1.01357466       1.84806792       1.26837198       0.00000000
Si      -1.50664038       1.39189362      -1.44477096       0.00000000
Si       2.53895940      -2.57761014       0.02788848       0.00000000
Si       2.51641404       2.73514530      -0.24490386       0.00000000
Si       2.56585962       0.03439362      -2.80227096       0.00000000
Si      -0.17445504      -2.52265854       2.91125106       0.00000000
Si      -0.14914038      -2.68060638      -2.80227096       0.00000000
Si      -2.86414038       0.03439362       2.62772904       0.00000000
