10
Lattice="16.28999089631971 0.0 0.0 0.0 16.28999089631971 0.0 0.0 0.0 34.63643526849801" Properties=species:S:1:pos:R:3:initial_magmoms:R:1 pbc="T T T"
Si       1.34329104       1.35256823       1.37752644       0.00000000
Si      -1.35982336       1.35476412      -1.36187076       0.00000000
Si       1.35707075      -1.36097992      -1.36114339       0.00000000
Si      -1.36039351      -1.36922266       1.37773426       0.00000000
Si       2.71138063       2.71628395       0.00138546       0.00000000
Si      -2.71700842       2.71087567      -0.00232064       0.00000000
Si      -0.00109715       2.71204855      -2.71892705       0.00000000
Si       2.71384042      -0.00268835      -2.71830360       0.00000000
Si       2.71229287      -2.72046187      -0.00051955       0.00000000
Si      -2.71705729      -2.71598212      -0.00010391       0.00000000
