10
Lattice="16.28999089631971 0.0 0.0 0.0 16.28999089631971 0.0 0.0 0.0 34.63643526849801" Properties=species:S:1:pos:R:3:initial_magmoms:R:1 pbc="T T T"
Si      -1.70910186       0.25474302      -1.59802211       0.00000000
Si       1.17724735       2.00502274      -0.46928932       0.00000000
Si       1.01708570      -2.09748411      -0.55570728       0.00000000
Si      -0.76235964       0.12460221       2.45472018       0.00000000
Si      -2.69573829       2.38372126      -1.12585796       0.00000000
Si       1.97720201       1.78807741      -2.74126756       0.00000000
Si      -3.27313734      -1.55264877      -1.41313271       0.00000000
Si       2.41207985      -2.95974639       1.06642180       0.00000000
Si       2.98423352       2.51011700       1.04505111       0.00000000
Si       2.78510456      -2.01676716      -2.17963745       0.00000000
