10
Lattice="16.28999089631971 0.0 0.0 0.0 16.28999089631971 0.0 0.0 0.0 34.63643526849801" Properties=species:S:1:pos:R:3:initial_magmoms:R:1 pbc="T T T"
Si       0.85924863      -2.16949798      -0.13923855       0.00000000
Si      -1.41115383       0.82233386      -1.74803259       0.00000000
Si      -1.10104110      -0.29350996       2.13578770       0.00000000
Si       1.59979203       1.91758875       0.05067313       0.00000000
Si       0.61566426       0.95279233       3.17041324       0.00000000
Si      -2.67551847       2.22296109      -0.07529965       0.00000000
Si      -1.12423806      -3.24279721      -1.14660519       0.00000000
Si       0.07897392       2.09368365      -3.14093761       0.00000000
Si      -3.21269751       0.70752194       1.88453486       0.00000000
Si       2.07840852      -2.33195815      -2.14877637       0.00000000
