10
Lattice="16.28999089631971 0.0 0.0 0.0 16.28999089631971 0.0 0.0 0.0 34.63643526849801" Properties=species:S:1:pos:R:3:initial_magmoms:R:1 pbc="T T T"
Si       1.23699744       0.66914433      -1.86939873       0.00000000
Si      -0.31535811      -2.30913780       0.27951619       0.00000000
Si       0.33554142       1.15911495       2.01552993       0.00000000
Si      -2.32852518       0.22656132      -0.25994659       0.00000000
Si       3.40698834       0.39491847      -0.84291276       0.00000000
Si      -2.75703363      -2.19058309       0.49052147       0.00000000
Si       0.94452678       3.03813387      -1.71696369       0.00000000
Si      -2.95702596       1.28078496       1.74380694       0.00000000
Si      -0.07802910      -0.29758572      -3.70457664       0.00000000
Si      -1.41221268       0.75750129       3.47829668       0.00000000
