10
Lattice="16.28999089631971 0.0 0.0 0.0 16.28999089631971 0.0 0.0 0.0 34.63643526849801" Properties=species:S:1:pos:R:3:initial_magmoms:R:1 pbc="T T T"
Si       1.35009891      -1.34811153       1.35400828       0.00000000
Si       1.34206794       1.35395964      -1.35864264       0.00000000
Si      -1.36008468      -1.32665760      -1.37677483       0.00000000
Si      -1.36262592       1.36288656       1.34794690       0.00000000
Si      -0.43556202       2.20296186      -2.65617619       0.00000000
Si      -2.22922134       0.50222070      -2.77975213       0.00000000
Si       2.72714148       0.01756062      -2.68283933       0.00000000
Si      -0.00480555      -2.70748597       2.70919421       0.00000000
Si       2.70881523      -2.70860020      -0.01115294       0.00000000
Si       2.70914103       0.00630423       2.70909030       0.00000000
