10
Lattice="16.28999089631971 0.0 0.0 0.0 16.28999089631971 0.0 0.0 0.0 34.63643526849801" Properties=species:S:1:pos:R:3:initial_magmoms:R:1 pbc="T T T"
Si       1.12238100       1.41208236      -1.47779897       0.00000000
Si      -2.31650316       0.56031084       0.17858556       0.00000000
Si       0.29247066      -2.36898954      -0.15243504       0.00000000
Si       1.05230142       0.71776998       2.08213583       0.00000000
Si       0.21708054       3.48407262      -0.78607434       0.00000000
Si      -0.94452678      -3.03813387       1.71696369       0.00000000
Si       3.38581134       1.03257423      -0.89722272       0.00000000
Si      -0.77843394       0.46403694       3.54677295       0.00000000
Si       2.46246156      -2.64321540       0.87405093       0.00000000
Si      -2.51889012       1.47194811       2.34616953       0.00000000
