10
Lattice="16.28999089631971 0.0 0.0 0.0 16.28999089631971 0.0 0.0 0.0 34.63643526849801" Properties=species:S:1:pos:R:3:initial_magmoms:R:1 pbc="T T T"
Si      -1.74045618       1.00791117      -1.20060343       0.00000000
Si       0.16944858      -2.34305586       0.18572067       0.00000000
Si       1.83073536       0.25373304      -1.46463712       0.00000000
Si       0.13940982       0.44136126       2.34263661       0.00000000
Si       2.29742757      -2.21428341       1.08827740       0.00000000
Si      -1.57830552      -2.74466952       1.64848742       0.00000000
Si      -1.20197394       3.26748078      -0.80269984       0.00000000
Si       2.34919719      -0.40550697       2.68972852       0.00000000
Si       0.77843394      -0.46403694      -3.54677295       0.00000000
Si      -1.53806922       0.09627390      -3.36818739       0.00000000
