10
Lattice="16.28999089631971 0.0 0.0 0.0 16.28999089631971 0.0 0.0 0.0 34.63643526849801" Properties=species:S:1:pos:R:3:initial_magmoms:R:1 pbc="T T T"
Si      -0.86547141      -2.14091325       0.35183711       0.00000000
Si      -0.39214917       0.45172170      -2.26622859       0.00000000
Si       2.28951063       0.69893874      -0.05652669       0.00000000
Si      -1.02247443       1.92440286       1.24580400       0.00000000
Si       2.45837277       0.83134386       2.21779474       0.00000000
Si       1.06968285       2.78135460       1.84130856       0.00000000
Si       0.39607506      -2.69156412       2.23582163       0.00000000
Si       1.22150565       2.17499193      -2.63621520       0.00000000
Si       1.84915935       3.21650937      -0.43880924       0.00000000
Si      -3.53541870      -1.07857719       0.84634177       0.00000000
