10
Lattice="16.28999089631971 0.0 0.0 0.0 16.28999089631971 0.0 0.0 0.0 34.63643526849801" Properties=species:S:1:pos:R:3:initial_magmoms:R:1 pbc="T T T"
Si       0.39214917      -0.45172170       2.26622859       0.00000000
Si       1.61365482       1.72327023      -0.36998661       0.00000000
Si      -2.20978737       0.84686823      -0.34709191       0.00000000
Si      -0.05176962      -1.80877644      -1.60145112       0.00000000
Si       2.68165980       0.24721704       2.20970190       0.00000000
Si      -2.34919719       0.40550697      -2.68972852       0.00000000
Si      -0.47332224      -2.59263495       2.61806570       0.00000000
Si       3.52619856       0.56438334      -1.07459600       0.00000000
Si      -2.17974861      -1.93754889      -2.50400785       0.00000000
Si      -0.63032526       1.47268116       3.51203259       0.00000000
