10
Lattice="16.28999089631971 0.0 0.0 0.0 16.28999089631971 0.0 0.0 0.0 34.63643526849801" Properties=species:S:1:pos:R:3:initial_magmoms:R:1 pbc="T T T"
Si      -1.22341158      -1.49559534      -1.39138102       0.00000000
Si       1.41115383      -0.82233386       1.74803259       0.00000000
Si       1.49012775       1.27134979      -1.39290502       0.00000000
Si      -1.26436464       1.40062723       1.67273294       0.00000000
Si      -2.41593732       2.53571443      -0.11204893       0.00000000
Si       3.01094586       1.09525489       1.79870573       0.00000000
Si      -2.63298528      -2.62485072       0.19050050       0.00000000
Si       2.59835274       2.72485762       0.14211337       0.00000000
Si      -2.49297925      -0.10876996      -2.85536005       0.00000000
Si       0.22809258       2.62377817      -2.85754214       0.00000000
