10
Lattice="16.28999089631971 0.0 0.0 0.0 16.28999089631971 0.0 0.0 0.0 34.63643526849801" Properties=species:S:1:pos:R:3:initial_magmoms:R:1 pbc="T T T"
Si      -1.35637056      -1.35721764      -1.35705629       0.00000000
Si       1.35881406       1.35767376      -1.35729875       0.00000000
Si      -1.35703845       1.35980775       1.35774902       0.00000000
Si       1.35829278      -1.35666378       1.36252885       0.00000000
Si      -2.71278999       2.71515204      -0.00065809       0.00000000
Si      -2.71463076       0.00019548      -2.71432040       0.00000000
Si      -2.71298547      -2.71617831      -0.00048491       0.00000000
Si       0.00149868      -2.71476108      -2.71480531       0.00000000
Si       0.00201996       2.71515204      -2.71508241       0.00000000
Si       2.71648782       0.00070047      -2.71490922       0.00000000
