10
Lattice="16.28999089631971 0.0 0.0 0.0 16.28999089631971 0.0 0.0 0.0 34.63643526849801" Properties=species:S:1:pos:R:3:initial_magmoms:R:1 pbc="T T T"
Si      -1.50372990      -1.63468521      -0.95523878       0.00000000
Si       1.25224488       0.03943809       2.14486245       0.00000000
Si       1.97156241      -1.32792822      -1.66234200       0.00000000
Si      -0.56651733       2.71073745      -1.05603087       0.00000000
Si      -2.79704187       2.06874855      -0.56014074       0.00000000
Si      -1.93725567      -0.12026907      -3.11922056       0.00000000
Si       1.41696936       3.78403668      -0.04866422       0.00000000
Si      -3.33152491      -2.32253046       0.39599859       0.00000000
Si       0.73871892       2.62075149      -3.10470788       0.00000000
Si       1.54403136       2.24256285       3.15839439       0.00000000
