10
Lattice="16.28999089631971 0.0 0.0 0.0 16.28999089631971 0.0 0.0 0.0 34.63643526849801" Properties=species:S:1:pos:R:3:initial_magmoms:R:1 pbc="T T T"
Si       0.31618890       0.90634302       2.18940493       0.00000000
Si       1.97042211      -0.14415021      -1.34649217       0.00000000
Si      -0.57316365      -2.32248159       0.35038237       0.00000000
Si      -1.51000155       1.60246359      -1.10573418       0.00000000
Si      -1.13849181      -0.52981596       3.35568363       0.00000000
Si       1.12474305      -3.33962919      -0.93632728       0.00000000
Si      -0.23319135      -2.60180622       2.66395900       0.00000000
Si      -0.31944690       3.17352006       2.03523807       0.00000000
Si       0.97827966      -0.73783926      -3.58043959       0.00000000
Si      -3.14392113      -0.22408524       2.19331885       0.00000000
