10
Lattice="16.28999089631971 0.0 0.0 0.0 16.28999089631971 0.0 0.0 0.0 34.63643526849801" Properties=species:S:1:pos:R:3:initial_magmoms:R:1 pbc="T T T"
Si      -1.76370201       1.04707233       1.16610552       0.00000000
Si       0.59046363      -2.24060805       0.47181778       0.00000000
Si       1.77684804       1.34675946       0.81970634       0.00000000
Si      -0.74077146       0.69730974      -2.15573830       0.00000000
Si      -3.47125239      -0.45540324       0.50243641       0.00000000
Si      -0.37967103       3.02523219      -1.79267898       0.00000000
Si      -1.20342375       3.31892460       0.43073895       0.00000000
Si       2.88455175      -0.07967439       2.42288927       0.00000000
Si       0.66824838       3.18381534       1.97694492       0.00000000
Si       1.87075989      -2.25828270       2.45582854       0.00000000
