10
Lattice="16.28999089631971 0.0 0.0 0.0 16.28999089631971 0.0 0.0 0.0 34.63643526849801" Properties=species:S:1:pos:R:3:initial_magmoms:R:1 pbc="T T T"
Si       0.43577379      -2.24264430      -0.62861701       0.00000000
Si       1.86983136       1.38020283      -0.53347067       0.00000000
Si      -1.68308280       0.99821862      -1.41545335       0.00000000
Si       1.06670178       0.50451759       2.27828208       0.00000000
Si      -3.26521647      -0.23789916       1.62680500       0.00000000
Si       3.15012762       1.36252818       1.45054008       0.00000000
Si      -2.19188466       3.16540764      -0.50285205       0.00000000
Si      -1.29003768      -3.66280650       0.25121821       0.00000000
Si      -0.90560997       0.58347522      -3.77395346       0.00000000
Si       1.27936773       3.62081088      -1.00528846       0.00000000
