10
Lattice="16.28999089631971 0.0 0.0 0.0 16.28999089631971 0.0 0.0 0.0 34.63643526849801" Properties=species:S:1:pos:R:3:initial_magmoms:R:1 pbc="T T T"
Si       1.36893015       1.33447680       1.38493517       0.00000000
Si      -1.34990343      -1.38173409       1.38438099       0.00000000
Si       1.35570267      -1.30448691      -1.51708018       0.00000000
Si      -1.39175244       1.44384786      -1.43936636       0.00000000
Si       2.71977840       2.66970294       0.01014155       0.00000000
Si      -2.71508688       2.69705621       0.02492439       0.00000000
Si      -2.70687672      -2.72324817       0.01641768       0.00000000
Si       2.70273906      -2.73131172       0.00020436       0.00000000
Si       0.01044189       2.69317645       2.74247638       0.00000000
Si      -2.70568755      -0.02194263       2.74400038       0.00000000
