10
Lattice="16.28999089631971 0.0 0.0 0.0 16.28999089631971 0.0 0.0 0.0 34.63643526849801" Properties=species:S:1:pos:R:3:initial_magmoms:R:1 pbc="T T T"
Si       1.35912357       1.35167901      -1.37503261       0.00000000
Si      -1.35723393      -1.36552554      -1.37607171       0.00000000
Si       1.35889551      -1.33884252       1.41008470       0.00000000
Si      -1.45666809       1.32067917       1.46595331       0.00000000
Si       0.05365926      -1.24885656       3.45876172       0.00000000
Si      -2.71459818      -2.70606222       0.00585356       0.00000000
Si       2.70407484      -2.72323188      -0.01108367       0.00000000
Si      -2.72623576       2.70750456       0.00197428       0.00000000
Si       2.71080261       2.72799412       0.00394856       0.00000000
Si       0.00262269       2.71090754      -2.73707655       0.00000000
