10
Lattice="16.28999089631971 0.0 0.0 0.0 16.28999089631971 0.0 0.0 0.0 34.63643526849801" Properties=species:S:1:pos:R:3:initial_magmoms:R:1 pbc="T T T"
Si      -1.35889551       1.33884252      -1.41008470       0.00000000
Si       1.89741033       1.00082502       1.04650584       0.00000000
Si       1.34517933      -1.38438936      -1.42116837       0.00000000
Si      -1.30523625       0.08998596       2.04867702       0.00000000
Si       0.67825044       1.16328519       3.05604366       0.00000000
Si       2.64450231      -2.61048879       0.09705135       0.00000000
Si      -2.67597459      -2.74102056      -0.01451267       0.00000000
Si       0.00022806       2.69052153      -2.78511732       0.00000000
Si      -2.81556360       2.65952169       0.05586860       0.00000000
Si       2.71132389      -0.02046024      -2.78757650       0.00000000
