10
Lattice="16.28999089631971 0.0 0.0 0.0 16.28999089631971 0.0 0.0 0.0 34.63643526849801" Properties=species:S:1:pos:R:3:initial_magmoms:R:1 pbc="T T T"
Si      -1.46451077       1.80396437      -0.03806546       0.00000000
Si       0.96371640      -0.24849418      -2.15469921       0.00000000
Si      -1.43005742      -1.84617569       0.59211019       0.00000000
Si       1.67127255      -0.46466410       1.75326270       0.00000000
Si       2.09978100       1.95248030       1.00279463       0.00000000
Si       0.05076453      -3.29460104      -0.45439565       0.00000000
Si       1.99392858      -2.64370151       0.70481722       0.00000000
Si      -0.09216068      -2.27826794      -2.61498305       0.00000000
Si      -2.07035216       1.97000834       2.19494677       0.00000000
Si       1.66061889       3.45194222      -0.79009217       0.00000000
