10
Lattice="16.28999089631971 0.0 0.0 0.0 16.28999089631971 0.0 0.0 0.0 34.63643526849801" Properties=species:S:1:pos:R:3:initial_magmoms:R:1 pbc="T T T"
Si       1.35228177      -1.35277438      -1.35522056       0.00000000
Si      -1.35949824      -1.35490837       1.35681384       0.00000000
Si       1.35557235       1.35979311       1.35691775       0.00000000
Si      -1.35985662       1.35896720      -1.36315231       0.00000000
Si       2.71160082      -2.71160473      -0.00041564       0.00000000
Si      -0.00197109      -2.71210972       2.71400868       0.00000000
Si       2.71331127       0.00254514       2.71369695       0.00000000
Si      -2.71637379       0.00205550       2.71383549       0.00000000
Si      -2.71767699      -2.71284277      -0.00013855       0.00000000
Si      -0.00138465       2.71712640       2.71387013       0.00000000
