10
Lattice="16.28999089631971 0.0 0.0 0.0 16.28999089631971 0.0 0.0 0.0 34.63643526849801" Properties=species:S:1:pos:R:3:initial_magmoms:R:1 pbc="T T T"
Si       1.16232408      -1.51692547      -1.37575998       0.00000000
Si      -1.55637918       1.20720792      -1.33461187       0.00000000
Si      -1.01087595      -1.85880370       1.11803012       0.00000000
Si       1.85267799       0.81253054       1.40502778       0.00000000
Si       3.32203599      -1.06899934       1.24815928       0.00000000
Si       2.52319068      -0.16949812      -2.72024324       0.00000000
Si       2.64520278       2.60909437       0.09047042       0.00000000
Si      -0.19337859       2.54613352      -2.71622541       0.00000000
Si       2.44314162      -2.86772485       0.01395849       0.00000000
Si       0.69401916      -3.59774491       1.42470129       0.00000000
