10
Lattice="16.28999089631971 0.0 0.0 0.0 16.28999089631971 0.0 0.0 0.0 34.63643526849801" Properties=species:S:1:pos:R:3:initial_magmoms:R:1 pbc="T T T"
Si       0.79252479       1.79656383      -1.31455736       0.00000000
Si       1.46935800      -1.88152988      -0.15686850       0.00000000
Si      -1.85267799      -0.81253054      -1.40502778       0.00000000
Si       0.92621682       0.73266393       2.23470942       0.00000000
Si       2.02608504       0.38135542      -2.76589408       0.00000000
Si      -1.31165451       1.04070783       3.05458893       0.00000000
Si       2.57434128       2.64178677       0.03037617       0.00000000
Si      -0.69035391      -2.32945601      -2.78078776       0.00000000
Si       3.32703702      -0.99077639      -1.36107412       0.00000000
Si      -2.86355394      -2.67133424      -0.28699766       0.00000000
