10
Lattice="16.28999089631971 0.0 0.0 0.0 16.28999089631971 0.0 0.0 0.0 34.63643526849801" Properties=species:S:1:pos:R:3:initial_magmoms:R:1 pbc="T T T"
Si       2.18688363      -0.87033627       0.39295058       0.00000000
Si      -1.09129968      -0.74532681      -2.00434236       0.00000000
Si      -0.68792670      -0.63295839       2.23592169       0.00000000
Si      -0.26655327       2.37362893      -0.44213434       0.00000000
Si      -0.07820829      -2.92580847      -2.16024104       0.00000000
Si       3.41001828      -0.24840914      -1.49487475       0.00000000
Si       0.21553299       0.28741587      -3.83096506       0.00000000
Si       2.95151994      -0.08559418       2.47366632       0.00000000
Si      -2.43654417       2.64785479      -1.46862031       0.00000000
Si      -0.18309960       1.22344090       3.71496758       0.00000000
