10
Lattice="16.28999089631971 0.0 0.0 0.0 16.28999089631971 0.0 0.0 0.0 34.63643526849801" Properties=species:S:1:pos:R:3:initial_magmoms:R:1 pbc="T T T"
Si      -1.35904212      -1.35441576      -1.35508201       0.00000000
Si       1.35814617      -1.35674523       1.35677920       0.00000000
Si       1.35892809       1.35625653      -1.35788757       0.00000000
Si      -1.35759231       1.35856971       1.35705629       0.00000000
Si      -2.70914103      -0.00630423      -2.70909030       0.00000000
Si       2.71718829      -0.00087966      -2.70947130       0.00000000
Si      -2.71394658      -2.71379020       0.00010391       0.00000000
Si      -2.71311579       0.00317655       2.71466677       0.00000000
Si       2.71441899      -0.00029322       2.71456286       0.00000000
Si       0.00083079       2.71487511       2.71411258       0.00000000
