10
Lattice="16.28999089631971 0.0 0.0 0.0 16.28999089631971 0.0 0.0 0.0 34.63643526849801" Properties=species:S:1:pos:R:3:initial_magmoms:R:1 pbc="T T T"
Si       1.33594290       1.35084825       1.36890196       0.00000000
Si      -1.35834165       1.35404109      -1.35691775       0.00000000
Si       1.35524655      -1.36112724      -1.35646747       0.00000000
Si      -1.36135530      -1.36106208       1.38757101       0.00000000
Si      -0.00127062       2.71243161      -2.71411258       0.00000000
Si       2.71353933      -0.00242721      -2.71387013       0.00000000
Si       2.71448415       2.71432125       0.00301337       0.00000000
Si       2.70624141      -0.00539199       2.72384543       0.00000000
Si      -2.71705797       2.71329498       0.00606138       0.00000000
Si      -2.71676475      -0.00226431      -2.71397404       0.00000000
