10
Lattice="16.28999089631971 0.0 0.0 0.0 16.28999089631971 0.0 0.0 0.0 34.63643526849801" Properties=species:S:1:pos:R:3:initial_magmoms:R:1 pbc="T T T"
Si      -2.23150194      -0.15869718      -0.71361487       0.00000000
Si       1.48647879       0.94814316      -1.58783899       0.00000000
Si       0.35807049       1.51109298       1.80781511       0.00000000
Si      -0.00079821      -2.17161990       1.11394302       0.00000000
Si      -3.21989769      -0.86206680       1.28096000       0.00000000
Si       3.56873175       0.41190894      -0.72064607       0.00000000
Si      -2.27642976      -1.75503573      -2.48003942       0.00000000
Si       1.34635221      -0.34176420      -3.57049893       0.00000000
Si       1.03953006      -1.89341928       3.19701403       0.00000000
Si       1.27249335       0.40759209       3.70260236       0.00000000
