10
Lattice="16.28999089631971 0.0 0.0 0.0 16.28999089631971 0.0 0.0 0.0 34.63643526849801" Properties=species:S:1:pos:R:3:initial_magmoms:R:1 pbc="T T T"
Si      -2.09215728      -0.85695174      -0.59550456       0.00000000
Si       0.42780798       1.75989015       1.48308246       0.00000000
Si       1.38868992      -1.95001074       0.37648618       0.00000000
Si       0.77947650       0.43515477      -2.28011781       0.00000000
Si       1.21982778      -2.08241586      -1.89783526       0.00000000
Si      -0.95726556       2.12240781      -2.37547197       0.00000000
Si       1.75023018       0.36733950       2.85958712       0.00000000
Si      -1.06968285      -2.78135460      -1.84130856       0.00000000
Si      -2.77257429      -1.52109504       1.56830892       0.00000000
Si       3.14084232      -1.00665684       1.50764663       0.00000000
