10
Lattice="16.28999089631971 0.0 0.0 0.0 16.28999089631971 0.0 0.0 0.0 34.63643526849801" Properties=species:S:1:pos:R:3:initial_magmoms:R:1 pbc="T T T"
Si      -1.17724735      -2.00502274       0.46928932       0.00000000
Si       1.80698617       0.50509426       1.51434043       0.00000000
Si      -1.19927632       2.07704668      -0.25495894       0.00000000
Si       0.79995466      -0.21694533      -2.27197824       0.00000000
Si       0.59996233       3.25442272      -1.01869277       0.00000000
Si       2.14477561       2.73113905       0.71579697       0.00000000
Si      -2.88634921      -1.75027972      -1.12873278       0.00000000
Si       1.22846311       2.20019908      -3.02244630       0.00000000
Si      -3.87298564       0.37869852      -0.65656863       0.00000000
Si       3.50266114      -1.19044129       1.46401366       0.00000000
