10
Lattice="16.28999089631971 0.0 0.0 0.0 16.28999089631971 0.0 0.0 0.0 34.63643526849801" Properties=species:S:1:pos:R:3:initial_magmoms:R:1 pbc="T T T"
Si      -1.35257499       1.35710361      -1.35819930       0.00000000
Si       1.35578412      -1.35275418      -1.36017357       0.00000000
Si      -1.35620766      -1.35723393       1.35819930       0.00000000
Si       1.35878148       1.35822762       1.35809539       0.00000000
Si      -2.71437012       2.71528236       0.00072737       0.00000000
Si      -2.71329498      -2.71668330      -0.00270164       0.00000000
Si      -2.71407690       0.00030951       2.71594832       0.00000000
Si       0.00087966      -2.71469592       2.71549804       0.00000000
Si       0.00110772       2.71520091       2.71570586       0.00000000
Si       2.71637379       0.00000000       2.71535950       0.00000000
