10
Lattice="16.28999089631971 0.0 0.0 0.0 16.28999089631971 0.0 0.0 0.0 34.63643526849801" Properties=species:S:1:pos:R:3:initial_magmoms:R:1 pbc="T T T"
Si      -0.68717736      -2.12788125       0.55442573       0.00000000
Si      -1.76896368       0.97293654      -1.33249905       0.00000000
Si       0.93393828      -1.90949751      -1.34143525       0.00000000
Si       0.99214245       0.59368905       2.23394741       0.00000000
Si      -0.35730486       2.31112746      -2.67781358       0.00000000
Si       2.38578453      -0.56702232      -2.73842738       0.00000000
Si       0.14646339      -2.60178993       2.64411231       0.00000000
Si      -0.97827966       0.73783926       3.58043959       0.00000000
Si       2.16094995      -1.44383157       2.93460825       0.00000000
Si       2.17131039       2.65559580       2.05124012       0.00000000
