10
Lattice="16.28999089631971 0.0 0.0 0.0 16.28999089631971 0.0 0.0 0.0 34.63643526849801" Properties=species:S:1:pos:R:3:initial_magmoms:R:1 pbc="T T T"
Si       0.70024194      -1.81460826       1.33554705       0.00000000
Si       1.88082711       1.46320038      -0.16829853       0.00000000
Si      -0.50772672      -0.71125398      -2.23557533       0.00000000
Si      -1.68914268       0.93183687       1.45358809       0.00000000
Si      -0.40884642       0.91416222       3.43759885       0.00000000
Si       1.32789564      -0.77309082       3.53295301       0.00000000
Si      -2.39234940       0.48912354      -2.98251047       0.00000000
Si       1.32649470       3.40643448      -1.49757639       0.00000000
Si       3.82873644       0.28248489      -1.04792593       0.00000000
Si       2.56319892       2.33070804       1.99152687       0.00000000
