10
Lattice="16.28999089631971 0.0 0.0 0.0 16.28999089631971 0.0 0.0 0.0 34.63643526849801" Properties=species:S:1:pos:R:3:initial_magmoms:R:1 pbc="T T T"
Si      -0.08829180      -1.60039639      -1.69600864       0.00000000
Si       1.30352580       1.91510127      -0.77239294       0.00000000
Si       1.85417667      -1.69956991       0.16448852       0.00000000
Si      -1.80257484      -0.60875078       1.66645824       0.00000000
Si       1.34239374       2.55319686       1.66730683       0.00000000
Si      -1.91674493      -2.98725110      -1.02336869       0.00000000
Si      -0.51512238      -2.01067952       3.08036334       0.00000000
Si       0.80821206      -3.26388788       1.61607259       0.00000000
Si       2.21153040       0.72431856       3.07028414       0.00000000
Si       3.49829379      -0.71979157       1.73860251       0.00000000
