10
Lattice="16.28999089631971 0.0 0.0 0.0 16.28999089631971 0.0 0.0 0.0 34.63643526849801" Properties=species:S:1:pos:R:3:initial_magmoms:R:1 pbc="T T T"
Si      -1.35084825      -1.33522614       1.37479362       0.00000000
Si      -1.42144911       1.31824123      -1.32697800       0.00000000
Si       1.36068741       1.38040875       1.37032552       0.00000000
Si       1.33265232      -1.29950217      -1.59960153       0.00000000
Si       0.31527666       2.34014714      -2.44849358       0.00000000
Si       2.22894441       0.65739339      -2.80120045       0.00000000
Si      -2.71977840      -2.66970294      -0.01014155       0.00000000
Si       2.72103273      -2.67527412      -0.01251415       0.00000000
Si       0.00286704      -2.69140122       2.73333928       0.00000000
Si      -2.70933651       0.02347351       2.73233482       0.00000000
