10
Lattice="16.28999089631971 0.0 0.0 0.0 16.28999089631971 0.0 0.0 0.0 34.63643526849801" Properties=species:S:1:pos:R:3:initial_magmoms:R:1 pbc="T T T"
Si      -1.35687555       1.35696387       1.35702166       0.00000000
Si       1.35949824       1.35490837      -1.35681384       0.00000000
Si       1.35752715      -1.35720135       1.35719484       0.00000000
Si      -1.35817875      -1.35793440      -1.35695238       0.00000000
Si       2.71178001       0.00213399      -2.71203440       0.00000000
Si       0.00058644       2.71268315       2.71442431       0.00000000
Si      -2.71189404      -0.00175932      -2.71549804       0.00000000
Si      -2.71412577      -0.00140094       2.71404331       0.00000000
Si       2.71482624       0.00203625       2.71390477       0.00000000
Si       0.00100998      -2.71358820       2.71525559       0.00000000
