10
Lattice="16.28999089631971 0.0 0.0 0.0 16.28999089631971 0.0 0.0 0.0 34.63643526849801" Properties=species:S:1:pos:R:3:initial_magmoms:R:1 pbc="T T T"
Si       0.89347392      -1.93464927       1.13680308       0.00000000
Si      -0.67733820      -0.40674501      -2.33612496       0.00000000
Si       2.23195806       1.07874009      -0.38585010       0.00000000
Si      -2.00432160       1.19360088       1.08834668       0.00000000
Si      -2.38223331       1.33219620      -2.64279612       0.00000000
Si       1.95067863       2.12200056      -2.51266696       0.00000000
Si       2.72396493      -2.67586056      -0.30971918       0.00000000
Si       1.82597868      -1.09014309       3.20664297       0.00000000
Si       1.07178426       0.32327505      -3.74686775       0.00000000
Si      -3.60139320       1.49465637      -0.63325830       0.00000000
