10
Lattice="16.28999089631971 0.0 0.0 0.0 16.28999089631971 0.0 0.0 0.0 34.63643526849801" Properties=species:S:1:pos:R:3:initial_magmoms:R:1 pbc="T T T"
Si      -1.61468109      -1.15992945      -1.26246413       0.00000000
Si       2.10812148      -0.03574026      -1.06749553       0.00000000
Si      -1.01309139       2.18048166       0.15589868       0.00000000
Si       0.03829779      -1.62479718       1.79489572       0.00000000
Si      -3.26523276      -1.02283281       0.39776504       0.00000000
Si       0.88962948      -3.41935245       0.37168379       0.00000000
Si       2.42183430       2.22904215      -1.40187586       0.00000000
Si       0.29374128       3.21322435      -1.67072403       0.00000000
Si       0.07820829       2.92580847       2.16024104       0.00000000
Si      -0.97904529      -3.42710649      -1.10829728       0.00000000
