10
Lattice="16.28999089631971 0.0 0.0 0.0 16.28999089631971 0.0 0.0 0.0 34.63643526849801" Properties=species:S:1:pos:R:3:initial_magmoms:R:1 pbc="T T T"
Si      -1.74910617      -1.08452304       1.07206754       0.00000000
Si       0.75461796      -0.77916699      -2.12841014       0.00000000
Si       1.77831414      -0.36681822       1.57429614       0.00000000
Si      -0.64387854       2.31544431      -0.25218803       0.00000000
Si      -2.87067267      -1.36482507      -1.01048393       0.00000000
Si       2.11585923       1.18772019      -2.36379948       0.00000000
Si      -2.24990964       0.73238211       2.56742720       0.00000000
Si       0.12075777       3.10018641       1.82852771       0.00000000
Si       2.32283997      -2.43959040      -1.35345410       0.00000000
Si       2.43729351      -2.55099771       1.01041465       0.00000000
