10
Lattice="16.28999089631971 0.0 0.0 0.0 16.28999089631971 0.0 0.0 0.0 34.63643526849801" Properties=species:S:1:pos:R:3:initial_magmoms:R:1 pbc="T T T"
Si      -0.54895671      -2.09817548      -0.82895427       0.00000000
Si       1.85254767       1.10348460      -0.92687153       0.00000000
Si      -1.73467323       1.40170563      -0.74167040       0.00000000
Si      -0.23084559       0.18412587       2.33255740       0.00000000
Si      -0.89984331       3.20725665       0.52668193       0.00000000
Si      -2.46252672      -2.26307915       0.54815653       0.00000000
Si       1.49527539       3.12148980       0.27826928       0.00000000
Si      -1.39613445      -1.81472196       2.61539869       0.00000000
Si       1.14100047       1.08437643      -3.18970574       0.00000000
Si      -1.20269070       1.68282216      -3.03851762       0.00000000
