10
Lattice="16.28999089631971 0.0 0.0 0.0 16.28999089631971 0.0 0.0 0.0 34.63643526849801" Properties=species:S:1:pos:R:3:initial_magmoms:R:1 pbc="T T T"
Si      -1.85254767      -1.10348460       0.92687153       0.00000000
Si      -0.71154720      -0.01910817      -2.26283422       0.00000000
Si      -0.35727228       2.01800520       1.20514080       0.00000000
Si       2.16286307      -0.90295470       0.44445499       0.00000000
Si      -3.58722090       0.29822103       0.18520112       0.00000000
Si       0.84827815       1.44210483       3.24276879       0.00000000
Si       1.14872912       1.15096995      -3.29552011       0.00000000
Si       2.84062481      -1.70497330      -1.69628573       0.00000000
Si      -2.75239098       2.10377205       1.45355345       0.00000000
Si      -3.05523837       0.57933756      -2.11164609       0.00000000
