10
Lattice="16.28999089631971 0.0 0.0 0.0 16.28999089631971 0.0 0.0 0.0 34.63643526849801" Properties=species:S:1:pos:R:3:initial_magmoms:R:1 pbc="T T T"
Si       1.16528886       1.99884783      -0.28284129       0.00000000
Si      -1.22313465      -0.62192713       1.88782532       0.00000000
Si       1.53660312      -1.74965125      -0.22378613       0.00000000
Si      -1.06639227      -0.44835718      -2.06724216       0.00000000
Si       1.39613445       1.81472196      -2.61539869       0.00000000
Si      -1.38010509      -2.71313959      -1.73286182       0.00000000
Si       0.84717774      -0.28345351      -3.44435296       0.00000000
Si      -0.57925611      -2.93737144       2.14001335       0.00000000
Si       0.17536185      -3.71653843       0.01160321       0.00000000
Si      -3.41001828       0.24840914       1.49487475       0.00000000
