10
Lattice="16.28999089631971 0.0 0.0 0.0 16.28999089631971 0.0 0.0 0.0 34.63643526849801" Properties=species:S:1:pos:R:3:initial_magmoms:R:1 pbc="T T T"
Si       0.60584139      -0.16604397      -2.23301223       0.00000000
Si       1.74239373      -0.14068044       1.57533523       0.00000000
Si      -0.93131559      -1.83902860       1.17372554       0.00000000
Si      -0.53918271       2.31777378      -0.01572495       0.00000000
Si       0.38478609       1.01310768       3.14152643       0.00000000
Si      -1.54248381      -0.47236113      -3.11069999       0.00000000
Si       2.07035216      -1.97000834      -2.19494677       0.00000000
Si      -0.95571801      -0.90583803       3.41820243       0.00000000
Si       1.18478799       3.29505975      -1.26627414       0.00000000
Si       3.54163238       1.03669560       0.81160140       0.00000000
