10
Lattice="16.28999089631971 0.0 0.0 0.0 16.28999089631971 0.0 0.0 0.0 34.63643526849801" Properties=species:S:1:pos:R:3:initial_magmoms:R:1 pbc="T T T"
Si      -1.35652110       1.35358497       1.35958475       0.00000000
Si      -1.35670668      -1.35819504      -1.35646747       0.00000000
Si       1.35852410       1.35710361      -1.35612111       0.00000000
Si       1.35577109      -1.35395964       1.36384504       0.00000000
Si      -2.69404413      -0.00327429       2.73333582       0.00000000
Si      -2.71414599      -0.00092853      -2.71383549       0.00000000
Si       0.00079658       2.71595025      -2.71314276       0.00000000
Si      -2.71399938       2.71534752       0.00038100       0.00000000
Si       0.00120057      -2.71552182      -2.71411258       0.00000000
Si       2.71632818       2.71332756       0.00041564       0.00000000
