10
Lattice="16.28999089631971 0.0 0.0 0.0 16.28999089631971 0.0 0.0 0.0 34.63643526849801" Properties=species:S:1:pos:R:3:initial_magmoms:R:1 pbc="T T T"
Si       1.35646414       1.35068535      -1.35241501       0.00000000
Si      -1.28330991       1.37052657       1.40866461       0.00000000
Si      -1.35695700      -1.36006839      -1.35123737       0.00000000
Si       1.28412441      -1.34364807       1.44111897       0.00000000
Si      -0.67175073      -2.14360110       2.62762536       0.00000000
Si       2.32396628       0.45897075       2.68796206       0.00000000
Si      -2.36494962      -0.31877901       2.68061913       0.00000000
Si       0.39447864       2.31736653       2.77431074       0.00000000
Si      -0.00009774       2.70915732      -2.71071821       0.00000000
Si      -2.71456560      -0.00472410      -2.71026794       0.00000000
