10
Lattice="16.28999089631971 0.0 0.0 0.0 16.28999089631971 0.0 0.0 0.0 34.63643526849801" Properties=species:S:1:pos:R:3:initial_magmoms:R:1 pbc="T T T"
Si       1.08163971       1.68930558      -1.27195452       0.00000000
Si      -1.75075146      -1.07782785      -1.20770390       0.00000000
Si       1.69319889      -1.82482209      -0.05299378       0.00000000
Si      -0.13473459       1.40357898       2.13544134       0.00000000
Si       1.47263229      -0.09938529       3.13130868       0.00000000
Si       2.36494962       0.31877901      -2.68061913       0.00000000
Si      -0.37054863      -2.40476238      -2.66596791       0.00000000
Si       1.70113212      -2.27574558       2.24676290       0.00000000
Si       2.75942826       2.63614554       0.09369161       0.00000000
Si       1.06481214       3.39727950       1.71886870       0.00000000
