10
Lattice="16.28999089631971 0.0 0.0 0.0 16.28999089631971 0.0 0.0 0.0 34.63643526849801" Properties=species:S:1:pos:R:3:initial_magmoms:R:1 pbc="T T T"
Si      -1.35174420       1.35678758       1.36100485       0.00000000
Si      -1.36081773      -1.35589320      -1.35730914       0.00000000
Si       1.36471104      -1.35977296       1.36024285       0.00000000
Si       1.36583505       1.37910488      -1.36738835       0.00000000
Si       2.65259844      -0.06500525      -2.69906997       0.00000000
Si      -2.70952059       2.70784760       0.00176646       0.00000000
Si      -2.64827019       0.04603554      -2.77121424       0.00000000
Si      -2.70904329      -2.71369964       0.00256310       0.00000000
Si      -2.70923063      -0.00216820       2.71802650       0.00000000
Si       0.00534312       2.71245767       2.71806114       0.00000000
