10
Lattice="16.28999089631971 0.0 0.0 0.0 16.28999089631971 0.0 0.0 0.0 34.63643526849801" Properties=species:S:1:pos:R:3:initial_magmoms:R:1 pbc="T T T"
Si       0.54895671       2.09817548       0.82895427       0.00000000
Si      -1.91357001      -0.16490367       1.37711080       0.00000000
Si       1.49576409      -1.55038446       1.01183475       0.00000000
Si      -0.36642726       0.12878874      -2.41551171       0.00000000
Si      -0.84717774       0.28345351       3.44435296       0.00000000
Si       0.68942538      -1.46619774       3.22056682       0.00000000
Si       0.80431875      -3.53054799      -0.02216733       0.00000000
Si      -1.18571652       3.49988111       0.08728387       0.00000000
Si      -2.22728283      -2.42968608       1.71149113       0.00000000
Si       1.66609233       1.03353112      -3.33552522       0.00000000
