10
Lattice="16.28999089631971 0.0 0.0 0.0 16.28999089631971 0.0 0.0 0.0 34.63643526849801" Properties=species:S:1:pos:R:3:initial_magmoms:R:1 pbc="T T T"
Si      -0.75461796       0.77916699       2.12841014       0.00000000
Si       1.36124127       1.96688718      -0.23538935       0.00000000
Si       1.56822201      -1.66042341       0.77495604       0.00000000
Si      -0.79096095      -1.88219547      -1.51236615       0.00000000
Si      -1.55546694       1.00339884      -1.74446504       0.00000000
Si      -0.87672780      -0.53204769      -3.43403129       0.00000000
Si      -2.77395894      -2.38021335      -0.30528571       0.00000000
Si      -0.17536185       3.71653843      -0.01160321       0.00000000
Si       2.16757998       1.88270046      -2.44412142       0.00000000
Si       1.47613464      -0.09746307      -3.47812350       0.00000000
