10
Lattice="16.28999089631971 0.0 0.0 0.0 16.28999089631971 0.0 0.0 0.0 34.63643526849801" Properties=species:S:1:pos:R:3:initial_magmoms:R:1 pbc="T T T"
Si       0.14699281      -2.25030060      -0.39056066       0.00000000
Si      -2.21793141       0.45688563      -0.38023900       0.00000000
Si       1.14774290       0.55553787       1.91120493       0.00000000
Si       1.16234037       2.20015998      -0.37043688       0.00000000
Si      -0.62781564       0.72469323       3.39703956       0.00000000
Si      -2.22586464       0.90780912      -2.67999568       0.00000000
Si      -2.44643124       2.63324592       0.50430678       0.00000000
Si       1.22449486      -2.45571750      -2.53594266       0.00000000
Si      -1.71328350      -3.42037872       0.64212523       0.00000000
Si      -0.43469769       3.81959775       0.93715855       0.00000000
