10
Lattice="16.28999089631971 0.0 0.0 0.0 16.28999089631971 0.0 0.0 0.0 34.63643526849801" Properties=species:S:1:pos:R:3:initial_magmoms:R:1 pbc="T T T"
Si       1.35055503      -1.34961021      -1.35674456       0.00000000
Si      -1.35766236      -1.35578412       1.35598256       0.00000000
Si       1.35622395       1.35796698       1.35570547       0.00000000
Si      -1.35668821       1.35628911      -1.36117803       0.00000000
Si      -2.70771781      -0.01643661      -2.71253316       0.00000000
Si       2.71448415       0.00055386       2.71296958       0.00000000
Si       0.00006516      -2.71463076       2.71300422       0.00000000
Si      -2.71506925       0.00068418       2.71258858       0.00000000
Si       0.00000000       2.71526607       2.71279640       0.00000000
Si      -2.71471517      -2.71379997      -0.00218210       0.00000000
