10
Lattice="16.28999089631971 0.0 0.0 0.0 16.28999089631971 0.0 0.0 0.0 34.63643526849801" Properties=species:S:1:pos:R:3:initial_magmoms:R:1 pbc="T T T"
Si      -1.35473667       1.35633798      -1.35913448       0.00000000
Si       1.35671265       1.35720135       1.35861493       0.00000000
Si       1.36099692      -1.36112724      -1.35986185       0.00000000
Si      -1.36055383      -1.35785295       1.38050517       0.00000000
Si      -2.71275246       2.71016730      -0.00107373       0.00000000
Si      -2.71194157      -0.00203625      -2.71681423       0.00000000
Si       0.00312768       2.71254564      -2.71660641       0.00000000
Si       2.71694394       2.71485882      -0.00162791       0.00000000
Si      -2.71185236      -2.72086983      -0.00069273       0.00000000
Si       0.00319284      -2.71735119      -2.71639859       0.00000000
