10
Lattice="16.28999089631971 0.0 0.0 0.0 16.28999089631971 0.0 0.0 0.0 34.63643526849801" Properties=species:S:1:pos:R:3:initial_magmoms:R:1 pbc="T T T"
Si      -0.71313710      -2.36664378      -0.15447859       0.00000000
Si      -0.69853963      -0.72202167      -2.43612040       0.00000000
Si      -2.29557770       0.89741610      -1.12852496       0.00000000
Si       0.47656395       2.17893411       1.81609323       0.00000000
Si      -1.41719742       1.06305282       2.53961413       0.00000000
Si       2.25131058      -0.18660195       2.61179650       0.00000000
Si      -1.28921503      -1.23362541       3.09476722       0.00000000
Si      -2.48869565      -2.19748842       1.33135604       0.00000000
Si      -3.16523564       1.30293936       1.08872768       0.00000000
Si       0.92567925      -2.08800333       2.95611749       0.00000000
