10
Lattice="16.28999089631971 0.0 0.0 0.0 16.28999089631971 0.0 0.0 0.0 34.63643526849801" Properties=species:S:1:pos:R:3:initial_magmoms:R:1 pbc="T T T"
Si       2.22902912       0.65301723      -0.14471111       0.00000000
Si      -0.84032358       1.43824410      -1.63120383       0.00000000
Si      -0.67022110       0.67157154       2.13312069       0.00000000
Si      -1.05554706      -1.91756106      -0.96175044       0.00000000
Si      -3.04084194       1.02078027      -0.97643629       0.00000000
Si      -2.92638840       0.90937296       1.38743246       0.00000000
Si       0.03765759      -1.88421543      -3.04977447       0.00000000
Si      -0.09032479       0.41246280      -3.60492756       0.00000000
Si       3.38612411      -0.89547759       1.15976705       0.00000000
Si       0.20380582      -0.99046458       3.55030587       0.00000000
