10
Lattice="16.28999089631971 0.0 0.0 0.0 16.28999089631971 0.0 0.0 0.0 34.63643526849801" Properties=species:S:1:pos:R:3:initial_magmoms:R:1 pbc="T T T"
Si      -1.35777639       1.35106002      -1.35923839       0.00000000
Si       1.35174420      -1.35678758      -1.36100485       0.00000000
Si       1.35708732       1.35567009       1.35705629       0.00000000
Si      -1.35748643      -1.35895578       1.35702166       0.00000000
Si       2.71503801       2.71186146      -0.00367146       0.00000000
Si      -0.00016290       2.71366965       2.71501313       0.00000000
Si      -2.71494323       2.71450044      -0.00017318       0.00000000
Si       2.71480995      -0.00097740       2.71490922       0.00000000
Si      -2.71539368      -0.00162900       2.71466677       0.00000000
Si      -0.00907353      -2.71268078      -2.71831399       0.00000000
