10
Lattice="16.28999089631971 0.0 0.0 0.0 16.28999089631971 0.0 0.0 0.0 34.63643526849801" Properties=species:S:1:pos:R:3:initial_magmoms:R:1 pbc="T T T"
Si       0.69595767       0.63524484      -2.11043382       0.00000000
Si      -2.36363732       0.11158650       0.36444478       0.00000000
Si       1.88375931       1.31212692       0.83453074       0.00000000
Si      -0.37737414      -2.76806196       0.01922323       0.00000000
Si      -2.38136084      -1.85660388      -0.95298741       0.00000000
Si      -1.88956507      -0.54802818       2.55197799       0.00000000
Si      -0.01029528      -2.45998548       2.40358746       0.00000000
Si       2.40350805       2.13772041      -1.44676471       0.00000000
Si       0.51030054       2.66967036       2.25677284       0.00000000
Si       1.20475953      -1.53194418      -3.02303512       0.00000000
