10
Lattice="16.28999089631971 0.0 0.0 0.0 16.28999089631971 0.0 0.0 0.0 34.63643526849801" Properties=species:S:1:pos:R:3:initial_magmoms:R:1 pbc="T T T"
Si      -1.35746018       1.35716877      -1.35740266       0.00000000
Si       1.35791896       1.35666378       1.35774902       0.00000000
Si       1.35723641      -1.35769005      -1.35754120       0.00000000
Si      -1.35752534      -1.35900954       1.35733338       0.00000000
Si       2.71547054      -0.00035838      -2.71393940       0.00000000
Si       2.71468862       2.71495535       0.00058882       0.00000000
Si      -0.00050052       2.71482343      -2.71508241       0.00000000
Si       2.71491668      -2.71510317       0.00010391       0.00000000
Si      -2.71497104      -2.71513575      -0.00045027       0.00000000
Si      -2.71519910       2.71527388      -0.00062346       0.00000000
