10
Lattice="16.28999089631971 0.0 0.0 0.0 16.28999089631971 0.0 0.0 0.0 34.63643526849801" Properties=species:S:1:pos:R:3:initial_magmoms:R:1 pbc="T T T"
Si       1.35637056       1.35824391       1.35608647       0.00000000
Si      -1.35823414      -1.35733167       1.35639820       0.00000000
Si       1.35578412      -1.35979146      -1.35961939       0.00000000
Si      -1.35762489       1.36119240      -1.35920375       0.00000000
Si       2.71363707      -2.71448415      -0.00100446       0.00000000
Si       2.71422351       0.00014661       2.71421649       0.00000000
Si      -0.00055386      -2.71474479       2.71404331       0.00000000
Si      -0.00118917      -2.70130554      -2.72758270       0.00000000
Si      -2.72330536       0.00022806      -2.70600419       0.00000000
Si      -2.71547054       0.00035838       2.71393940       0.00000000
