10
Lattice="16.28999089631971 0.0 0.0 0.0 16.28999089631971 0.0 0.0 0.0 34.63643526849801" Properties=species:S:1:pos:R:3:initial_magmoms:R:1 pbc="T T T"
Si       1.19635389      -0.06616998       2.05418421       0.00000000
Si      -2.07696590      -1.18431558       0.03910456       0.00000000
Si       0.94719834      -0.69076116      -2.23290832       0.00000000
Si      -0.32890813       2.34463599      -0.92642125       0.00000000
Si       0.25782183       1.39150809      -3.13972534       0.00000000
Si      -1.18432277      -3.46260240       0.03082644       0.00000000
Si      -0.31407935       0.91124631       3.55882644       0.00000000
Si       3.33671328       0.99235422       1.96748917       0.00000000
Si       1.58781888      -2.18108439       2.97544463       0.00000000
Si       1.08926343       3.90154689       0.30234161       0.00000000
