10
Lattice="16.28999089631971 0.0 0.0 0.0 16.28999089631971 0.0 0.0 0.0 34.48637585096406" Properties=species:S:1:pos:R:3:initial_magmoms:R:1 pbc="T T T"
Si       1.11555549       1.56677709      -1.35626512       0.00000000
Si       1.33271748      -1.36881842       1.42098087       0.00000000
Si      -1.40594103       1.33620843       1.40014764       0.00000000
Si      -0.77346549      -1.71649589      -1.48200252       0.00000000
Si      -0.76211136       3.42743718      -1.37819847       0.00000000
Si       2.30567031      -0.31682095      -3.00581837       0.00000000
Si       2.70573642      -2.67617237       0.01009762       0.00000000
Si       2.72173320       2.70919479      -0.03707977       0.00000000
Si       2.68325622      -0.01999109       2.78356593       0.00000000
Si       1.01177190      -3.48050741      -1.35961030       0.00000000
