10
Lattice="16.28999089631971 0.0 0.0 0.0 16.28999089631971 0.0 0.0 0.0 34.48637585096406" Properties=species:S:1:pos:R:3:initial_magmoms:R:1 pbc="T T T"
Si      -0.08097759      -0.68737284       2.25585856       0.00000000
Si       1.37031480      -1.29370293      -1.42721946       0.00000000
Si       1.01599101       2.12991750       0.25395781       0.00000000
Si      -2.28420009       0.11847717      -0.74835477       0.00000000
Si       2.00526642      -1.72678073       2.25941066       0.00000000
Si      -1.88861373      -1.28679597      -2.69104238       0.00000000
Si      -0.78983694       3.23170794       1.18398692       0.00000000
Si      -2.77879707       2.23691022       0.34393282       0.00000000
Si       0.40747806      -0.92491362      -3.49202340       0.00000000
Si       3.51458379      -0.20618253       1.18453870       0.00000000
