10
Lattice="16.28999089631971 0.0 0.0 0.0 16.28999089631971 0.0 0.0 0.0 34.48637585096406" Properties=species:S:1:pos:R:3:initial_magmoms:R:1 pbc="T T T"
Si       1.35079938       1.36407573      -1.37783494       0.00000000
Si      -1.36580247      -1.35190710      -1.37683484       0.00000000
Si      -1.48794489       1.31693247       1.30624119       0.00000000
Si       1.33017624      -1.38176667       1.52133283       0.00000000
Si       2.68876224      -2.70576900      -0.00831122       0.00000000
Si       2.69806383       2.71981098       0.00769047       0.00000000
Si      -2.72425815      -2.70637173       0.00886300       0.00000000
Si       2.70599706       0.00596214      -2.73863361       0.00000000
Si      -0.00790065      -2.70861975      -2.73935782       0.00000000
Si      -0.00780291       2.72186352      -2.73856464       0.00000000
