10
Lattice="16.28999089631971 0.0 0.0 0.0 16.28999089631971 0.0 0.0 0.0 34.48637585096406" Properties=species:S:1:pos:R:3:initial_magmoms:R:1 pbc="T T T"
Si       0.73775781      -1.98395910      -0.97351645       0.00000000
Si      -2.17824993       0.83681730      -0.02465777       0.00000000
Si       1.34006427       0.17808228       1.91506401       0.00000000
Si       1.05394671       1.56416580      -1.46594768       0.00000000
Si      -1.65465675       2.80352529       1.35038377       0.00000000
Si       2.03851431       2.45638539       1.86440349       0.00000000
Si       3.17650113      -1.27997046       1.43842754       0.00000000
Si       3.35854188       1.00395270      -1.34562465       0.00000000
Si       3.37727538      -1.36787130      -1.00758901       0.00000000
Si       0.01040931      -3.91556214       0.12304746       0.00000000
