10
Lattice="16.28999089631971 0.0 0.0 0.0 16.28999089631971 0.0 0.0 0.0 34.48637585096406" Properties=species:S:1:pos:R:3:initial_magmoms:R:1 pbc="T T T"
Si       2.05413642       1.21397967      -0.30141109       0.00000000
Si      -2.00818233       1.01967255      -0.93127061       0.00000000
Si      -0.52359318      -1.96670799      -1.37504155       0.00000000
Si       0.41249538      -0.39499992       2.42504882       0.00000000
Si       1.65465675      -2.80352529      -1.35038377       0.00000000
Si      -2.64591954      -2.38081608      -0.25988947       0.00000000
Si       2.33344476       1.11796641      -2.61720701       0.00000000
Si       3.69317106      -0.34713990       0.51401972       0.00000000
Si      -1.67094675      -0.03044601       3.35345706       0.00000000
Si      -2.79784008      -1.63932786       2.00538388       0.00000000
