10
Lattice="16.28999089631971 0.0 0.0 0.0 16.28999089631971 0.0 0.0 0.0 34.48637585096406" Properties=species:S:1:pos:R:3:initial_magmoms:R:1 pbc="T T T"
Si      -0.02599884      -0.63907299       2.25065112       0.00000000
Si       1.13332788       2.05716636      -0.25557867       0.00000000
Si      -0.44810532      -1.62772938      -1.70617991       0.00000000
Si       2.41743600       0.03657105       0.09628602       0.00000000
Si       0.10871946      -2.92058523       1.76104777       0.00000000
Si       1.40509395       1.04150115       3.04125173       0.00000000
Si       0.80021367       3.01099473       1.83677989       0.00000000
Si       2.27667411      -2.78031204       0.43708057       0.00000000
Si      -3.47234219       0.53524053       1.37352414       0.00000000
Si      -2.57163714      -2.53819377      -1.18008995       0.00000000
