10
Lattice="16.28999089631971 0.0 0.0 0.0 16.28999089631971 0.0 0.0 0.0 34.48637585096406" Properties=species:S:1:pos:R:3:initial_magmoms:R:1 pbc="T T T"
Si      -0.25609509      -0.36370683       2.27424640       0.00000000
Si      -1.43109279      -1.68057414      -0.79060061       0.00000000
Si      -0.60488028       1.96949358      -1.20447184       0.00000000
Si       2.12742513      -0.61258545      -0.90312972       0.00000000
Si       1.01234205      -1.00493010      -2.94496571       0.00000000
Si      -0.27176607       1.01566521      -3.29683040       0.00000000
Si      -1.40509395      -1.04150115      -3.04125173       0.00000000
Si       1.40278077      -2.22799959       2.33899047       0.00000000
Si       2.94345639      -2.29972446       0.56319732       0.00000000
Si       0.57335913       1.49454234       3.43832950       0.00000000
