10
Lattice="16.28999089631971 0.0 0.0 0.0 16.28999089631971 0.0 0.0 0.0 34.48637585096406" Properties=species:S:1:pos:R:3:initial_magmoms:R:1 pbc="T T T"
Si      -1.16563095       1.56367710       1.27296182       0.00000000
Si       1.34617302       1.34677575      -1.34396930       0.00000000
Si       1.23579198      -1.36212093       1.43722052       0.00000000
Si      -1.37130849      -1.36528119      -1.33883083       0.00000000
Si      -2.29154688      -0.09840789       2.50043608       0.00000000
Si      -0.73748088      -2.20864707       2.53481901       0.00000000
Si       2.70340695      -0.00799839      -2.70056063       0.00000000
Si      -0.01058850       2.70459612      -2.70100895       0.00000000
Si       2.55919158      -0.02008557       2.83947183       0.00000000
Si       2.69083107       2.72214045       0.02858922       0.00000000
