10
Lattice="16.28999089631971 0.0 0.0 0.0 16.28999089631971 0.0 0.0 0.0 34.48637585096406" Properties=species:S:1:pos:R:3:initial_magmoms:R:1 pbc="T T T"
Si      -1.73268585       0.61341624      -1.41480436       0.00000000
Si      -0.78063309      -0.78763779       2.06276924       0.00000000
Si       1.48546881       1.72323180       0.71221303       0.00000000
Si       0.55047168      -2.21270328      -1.51450453       0.00000000
Si      -0.60996276      -0.60240420      -3.31752224       0.00000000
Si      -3.48356763      -0.69986727      -0.41594041       0.00000000
Si       1.29249747      -1.24822125       3.11384559       0.00000000
Si       1.63478295       2.96263691      -1.33993440       0.00000000
Si       2.96829864      -2.10233853      -0.40707741       0.00000000
Si      -2.71265967      -2.00028168       1.48019057       0.00000000
