10
Lattice="16.28999089631971 0.0 0.0 0.0 16.28999089631971 0.0 0.0 0.0 34.48637585096406" Properties=species:S:1:pos:R:3:initial_magmoms:R:1 pbc="T T T"
Si       0.77346549       1.71649589       1.48200252       0.00000000
Si      -0.22757130       0.48965478      -2.41390971       0.00000000
Si       1.78523739      -1.76401152       0.12239222       0.00000000
Si      -1.96257033      -1.03622319       1.26796271       0.00000000
Si       2.10618297       0.34767747       2.90298339       0.00000000
Si       3.07913580       1.39967494      -1.52381585       0.00000000
Si       3.01601205      -1.25177247      -1.84029750       0.00000000
Si      -0.62850078      -2.37162852       2.88161907       0.00000000
Si       1.88902098       3.28327298       0.12573740       0.00000000
Si       3.47920191      -0.95967648       1.49210014       0.00000000
