10
Lattice="16.28999089631971 0.0 0.0 0.0 16.28999089631971 0.0 0.0 0.0 34.48637585096406" Properties=species:S:1:pos:R:3:initial_magmoms:R:1 pbc="T T T"
Si      -1.35053874      -1.34882733      -1.36258506       0.00000000
Si      -1.35438318       1.35862673       1.35852256       0.00000000
Si       1.35891180      -1.35646611       1.36104007       0.00000000
Si       1.35993807       1.36235714      -1.36860639       0.00000000
Si       2.70770751      -2.70488838       0.00458669       0.00000000
Si      -2.71573848      -2.71094826      -0.00289686       0.00000000
Si       0.00117288      -2.71205598       2.71621745       0.00000000
Si      -2.71358820       0.00165995       2.71576913       0.00000000
Si      -2.71484253       2.71589323      -0.00441426       0.00000000
Si       0.02248020      -2.65618128      -2.77346832       0.00000000
