10
Lattice="16.28999089631971 0.0 0.0 0.0 16.28999089631971 0.0 0.0 0.0 34.48637585096406" Properties=species:S:1:pos:R:3:initial_magmoms:R:1 pbc="T T T"
Si       1.35721764      -1.35626110      -1.35679824       0.00000000
Si       1.35713619       1.35664034       1.35755694       0.00000000
Si      -1.35668007      -1.35862315       1.35686722       0.00000000
Si      -1.35754344       1.35745484      -1.35724657       0.00000000
Si       2.71495656      -0.00067122      -2.71197563       0.00000000
Si      -2.71485882       0.00030676      -2.71401032       0.00000000
Si       0.00166158       2.71442161      -2.71449313       0.00000000
Si       0.00239463      -2.71336471      -2.71580362       0.00000000
Si      -2.71489140      -2.71448872       0.00000000       0.00000000
Si       2.71472850       2.71528498       0.00003449       0.00000000
