10
Lattice="16.28999089631971 0.0 0.0 0.0 16.28999089631971 0.0 0.0 0.0 34.48637585096406" Properties=species:S:1:pos:R:3:initial_magmoms:R:1 pbc="T T T"
Si       0.98663643       1.57082352      -1.41114880       0.00000000
Si      -0.67367295       0.96776772       2.06076903       0.00000000
Si      -1.60816509      -1.14506873      -1.33945159       0.00000000
Si       2.19696714      -0.83606633       1.13294705       0.00000000
Si       1.33188669       2.37765093       2.26585962       0.00000000
Si       2.32780842      -2.75162113      -0.17401835       0.00000000
Si       2.36718135       0.11841853      -2.85036953       0.00000000
Si       1.64309085       3.40559880       0.08818171       0.00000000
Si      -0.36334845      -2.58272641      -2.86499176       0.00000000
Si      -2.91841866      -2.59727338       0.08318119       0.00000000
