10
Lattice="16.28999089631971 0.0 0.0 0.0 16.28999089631971 0.0 0.0 0.0 34.48637585096406" Properties=species:S:1:pos:R:3:initial_magmoms:R:1 pbc="T T T"
Si       0.67367295      -0.96776772      -2.06076903       0.00000000
Si      -0.14931414      -1.23940510       2.05214743       0.00000000
Si      -2.01844503       1.28251170       0.31927505       0.00000000
Si       2.00555964       1.40988321       0.20509059       0.00000000
Si      -0.68686785       2.04550272       2.50140170       0.00000000
Si       2.87064009      -1.80383405      -0.92782197       0.00000000
Si      -1.63478295      -2.96263691       1.33993440       0.00000000
Si      -2.53693944       2.03537034      -1.92396150       0.00000000
Si      -1.41421635       0.11389968       3.59796560       0.00000000
Si       1.66030938       0.60305580      -3.47191783       0.00000000
