10
Lattice="16.28999089631971 0.0 0.0 0.0 16.28999089631971 0.0 0.0 0.0 34.48637585096406" Properties=species:S:1:pos:R:3:initial_magmoms:R:1 pbc="T T T"
Si      -2.13249132      -0.85501323      -0.25430268       0.00000000
Si       1.50030900      -1.30815053      -1.23730288       0.00000000
Si       0.01177767       0.23250717       2.35745548       0.00000000
Si       0.07076376       2.14936776      -1.00372653       0.00000000
Si       1.94158881       3.02420592       0.13732483       0.00000000
Si      -3.50280612       0.43868970       1.17291678       0.00000000
Si       3.38113611       0.11595222      -1.56747563       0.00000000
Si      -0.53196624       2.47293603       2.74532397       0.00000000
Si      -2.48681511       2.56860720       1.42687460       0.00000000
Si       0.37300842      -2.34381009      -3.07522083       0.00000000
