10
Lattice="16.28999089631971 0.0 0.0 0.0 16.28999089631971 0.0 0.0 0.0 34.48637585096406" Properties=species:S:1:pos:R:3:initial_magmoms:R:1 pbc="T T T"
Si       1.35718506       1.35576783       1.35676376       0.00000000
Si       1.35695700      -1.35746199      -1.35741900       0.00000000
Si      -1.35736425       1.35786924      -1.35731554       0.00000000
Si      -1.35865116      -1.35801585       1.35772938       0.00000000
Si       0.00083079      -2.71326240      -2.71369995       0.00000000
Si       2.71614573       0.00017919       2.71256189       0.00000000
Si      -2.71345788       0.00180819      -2.71528632       0.00000000
Si       2.71467963      -2.71505430       0.00003449       0.00000000
Si       2.71480995       2.71497285       0.00010346       0.00000000
Si      -2.71526607      -2.71495656      -0.00010346       0.00000000
