10
Lattice="16.28999089631971 0.0 0.0 0.0 16.28999089631971 0.0 0.0 0.0 34.48637585096406" Properties=species:S:1:pos:R:3:initial_magmoms:R:1 pbc="T T T"
Si      -1.35725022       1.35679410      -1.35693619       0.00000000
Si      -1.35692442      -1.35799956       1.35779835       0.00000000
Si       1.35765747       1.35817875       1.35714311       0.00000000
Si       1.35816246      -1.35801585      -1.35731554       0.00000000
Si       0.00042354       2.71295289       2.71373443       0.00000000
Si      -2.71516833       0.00040725      -2.71376892       0.00000000
Si       0.00206883      -2.71407690      -2.71528632       0.00000000
Si      -2.71454931       2.71490769      -0.00017243       0.00000000
Si       2.71533123       2.71437012      -0.00003449       0.00000000
Si       2.71515204       0.00128691      -2.71514837       0.00000000
