10
Lattice="16.28999089631971 0.0 0.0 0.0 16.28999089631971 0.0 0.0 0.0 34.48637585096406" Properties=species:S:1:pos:R:3:initial_magmoms:R:1 pbc="T T T"
Si      -1.38053107       1.27658214       1.41196958       0.00000000
Si      -1.00483073      -1.73283246      -1.29167679       0.00000000
Si       1.36701770      -1.41294573       1.39401251       0.00000000
Si       0.86963513       1.99676304      -1.12131479       0.00000000
Si      -2.78107508       2.52519435      -0.04708428       0.00000000
Si      -1.00052691       3.47025870      -1.25333147       0.00000000
Si      -0.00536104       2.64072303       2.76735043       0.00000000
Si       2.71796369      -2.72424186      -0.12036786       0.00000000
Si      -2.59380524      -2.85461073      -0.03282415       0.00000000
Si       2.70990014      -0.07571592       2.77711008       0.00000000
