10
Lattice="16.28999089631971 0.0 0.0 0.0 16.28999089631971 0.0 0.0 0.0 34.48637585096406" Properties=species:S:1:pos:R:3:initial_magmoms:R:1 pbc="T T T"
Si       1.85262912      -0.91608444       0.99686374       0.00000000
Si      -0.49506939      -1.16934507      -1.93172094       0.00000000
Si       0.63058590       2.07976059      -0.87374731       0.00000000
Si      -2.12926590       0.22304268       1.00055378       0.00000000
Si      -1.59132123       2.46259188      -1.56488915       0.00000000
Si      -2.13410403       0.39177450      -2.74715175       0.00000000
Si      -1.44058986      -0.20017152       3.21057993       0.00000000
Si      -2.64086964       2.52294633       0.59237281       0.00000000
Si       1.42978959      -1.32007644      -3.29231268       0.00000000
Si       1.60081830       3.38540409       0.81922432       0.00000000
