10
Lattice="16.28999089631971 0.0 0.0 0.0 16.28999089631971 0.0 0.0 0.0 34.48637585096406" Properties=species:S:1:pos:R:3:initial_magmoms:R:1 pbc="T T T"
Si       0.38162583       0.25972776      -2.36876702       0.00000000
Si       0.79293204       2.34605322      -0.06824858       0.00000000
Si       1.86364116      -1.55287683       0.64030890       0.00000000
Si      -2.29032513      -1.08530496      -0.65210325       0.00000000
Si      -1.98149931      -0.07750782       2.36228500       0.00000000
Si       2.34644418       1.78295679      -1.92147848       0.00000000
Si      -1.31973435      -3.04903188      -1.49984781       0.00000000
Si       0.65757843      -2.91825576       2.10130920       0.00000000
Si      -1.25804412       1.76032998      -3.01638704       0.00000000
Si      -3.10635639       0.60183405      -2.11843028       0.00000000
