10
Lattice="16.28999089631971 0.0 0.0 0.0 16.28999089631971 0.0 0.0 0.0 34.48637585096406" Properties=species:S:1:pos:R:3:initial_magmoms:R:1 pbc="T T T"
Si      -1.34591238      -1.33038801      -1.35733623       0.00000000
Si       1.35700587      -1.34913780       1.35669478       0.00000000
Si      -1.35540945       1.36560699       1.35586711       0.00000000
Si       1.37575566       1.36844145      -1.39326416       0.00000000
Si       0.11140731      -2.63352285      -2.62611830       0.00000000
Si      -2.56751577       0.15294681      -2.76537436       0.00000000
Si       2.71042794      -2.70728397      -0.00296583       0.00000000
Si       0.00001629      -2.70844056       2.71452762       0.00000000
Si      -2.71612944      -2.70888039      -0.00562128       0.00000000
Si       2.71485882       0.00581553       2.71473454       0.00000000
