10
Lattice="16.28999089631971 0.0 0.0 0.0 16.28999089631971 0.0 0.0 0.0 34.48637585096406" Properties=species:S:1:pos:R:3:initial_magmoms:R:1 pbc="T T T"
Si       1.33019253       1.36143675       1.39650588       0.00000000
Si      -1.37575566      -1.36844145       1.39326416       0.00000000
Si      -1.35503478       1.41014385      -1.38154913       0.00000000
Si       1.95385518      -0.81744849      -1.36201948       0.00000000
Si       2.69690724       2.69982385       0.04240792       0.00000000
Si       2.70954828      -2.70826137       0.00619721       0.00000000
Si      -2.72166804      -2.69882946       0.03592793       0.00000000
Si       2.69550630      -0.00488700       2.74813116       0.00000000
Si      -2.72805372       2.71749780       0.02933413       0.00000000
Si      -0.01860318       2.70985903       2.75295926       0.00000000
