10
Lattice="16.28999089631971 0.0 0.0 0.0 16.28999089631971 0.0 0.0 0.0 34.48637585096406" Properties=species:S:1:pos:R:3:initial_magmoms:R:1 pbc="T T T"
Si       1.26482076      -1.44072018       1.35265988       0.00000000
Si       1.37008674       1.34141645      -1.36921335       0.00000000
Si      -1.34465805      -1.37536470      -1.37255853       0.00000000
Si      -1.24481664       1.43765768       1.52554017       0.00000000
Si       2.69115687      -0.16889472       2.69097341       0.00000000
Si      -2.70370017       2.70453489       0.02510610       0.00000000
Si      -2.69083107      -2.72214045      -0.02858922       0.00000000
Si       0.01239669       2.69771915      -2.72890845       0.00000000
Si      -2.70141957      -0.01754433      -2.72959817       0.00000000
Si       2.73052980       2.70114494       0.01462223       0.00000000
