10
Lattice="16.28999089631971 0.0 0.0 0.0 16.28999089631971 0.0 0.0 0.0 34.48637585096406" Properties=species:S:1:pos:R:3:initial_magmoms:R:1 pbc="T T T"
Si       1.05551055      -1.64678938      -1.27796234       0.00000000
Si      -1.36671471      -1.33838710       1.35409796       0.00000000
Si      -1.28326104       1.42204366      -1.36368518       0.00000000
Si       1.35951453       1.36943022       1.35202877       0.00000000
Si       2.43379116       0.17365788      -2.55302024       0.00000000
Si      -2.69690724      -2.69982385      -0.04240792       0.00000000
Si      -0.00140094      -2.70471085       2.70572324       0.00000000
Si       2.71380988       0.01197942       2.70820626       0.00000000
Si      -2.71551042       0.01003517       2.71055134       0.00000000
Si       2.71731861       2.71310598       0.00761115       0.00000000
