10
Lattice="16.28999089631971 0.0 0.0 0.0 16.28999089631971 0.0 0.0 0.0 34.48637585096406" Properties=species:S:1:pos:R:3:initial_magmoms:R:1 pbc="T T T"
Si      -1.35539316      -1.35847197       1.35652235       0.00000000
Si       1.35869256       1.35679410       1.35641889       0.00000000
Si      -1.35664749       1.35659862      -1.35886743       0.00000000
Si       1.35693812      -1.35861858      -1.36338514       0.00000000
Si      -2.71091664       2.71456560      -0.00120702       0.00000000
Si      -2.71357191      -0.00109143       2.71414827       0.00000000
Si       0.00160207       2.71402803       2.71411378       0.00000000
Si       0.00434943      -2.72834694      -2.70097447       0.00000000
Si      -2.71389771      -2.71575477       0.00027589       0.00000000
Si      -0.01746791       2.70785412      -2.72204220       0.00000000
