10
Lattice="16.28999089631971 0.0 0.0 0.0 16.28999089631971 0.0 0.0 0.0 34.48637585096406" Properties=species:S:1:pos:R:3:initial_magmoms:R:1 pbc="T T T"
Si      -1.33646418      -1.33876107      -1.37376555       0.00000000
Si       1.37891592       1.37448504      -1.36700622       0.00000000
Si       1.17543753      -1.48504527       1.45356707       0.00000000
Si      -1.42716690       1.31821938       1.41318350       0.00000000
Si       2.13835802       0.29211228       2.69431859       0.00000000
Si       0.41417325       2.09800539       2.75711832       0.00000000
Si      -2.69229717      -2.69572296       0.01403596       0.00000000
Si      -2.69496873       0.01413972      -2.72904639       0.00000000
Si       0.01765836      -2.69797586      -2.72963266       0.00000000
Si       2.73128958      -2.70299644       0.01700179       0.00000000
