10
Lattice="16.28999089631971 0.0 0.0 0.0 16.28999089631971 0.0 0.0 0.0 34.48637585096406" Properties=species:S:1:pos:R:3:initial_magmoms:R:1 pbc="T T T"
Si       0.82358982       1.90029366      -1.01289991       0.00000000
Si       1.79216064      -1.49509620       0.14235984       0.00000000
Si      -0.57458088       0.76136202       2.13567348       0.00000000
Si      -1.87082505      -0.87483816      -1.14105136       0.00000000
Si      -1.08395289       2.71078632      -2.07566715       0.00000000
Si      -1.94158881      -3.02420592      -0.13732483       0.00000000
Si      -2.47355505      -0.55126989       2.60799914       0.00000000
Si       1.24393698       3.33348786       0.80629192       0.00000000
Si       1.43954730      -2.90825370      -1.70480046       0.00000000
Si       2.83165812       1.29077073      -2.05087143       0.00000000
