10
Lattice="16.28999089631971 0.0 0.0 0.0 16.28999089631971 0.0 0.0 0.0 34.48637585096406" Properties=species:S:1:pos:R:3:initial_magmoms:R:1 pbc="T T T"
Si       0.57458088      -0.76136202      -2.13567348       0.00000000
Si      -0.08653248       2.35341630       0.07783579       0.00000000
Si      -1.89897417      -1.31263191       0.47232567       0.00000000
Si       1.97218143       0.26531523       1.33379582       0.00000000
Si       1.81851786       2.57212584      -1.32938156       0.00000000
Si       1.39817070       1.13893164      -3.14857339       0.00000000
Si      -2.18603655      -1.26224694       2.75767010       0.00000000
Si       1.17149535       1.33993395       3.30083082       0.00000000
Si      -1.35523026      -3.55306077       0.08445718       0.00000000
Si       2.36674152      -2.25645822      -1.99331364       0.00000000
