10
Lattice="16.28999089631971 0.0 0.0 0.0 16.28999089631971 0.0 0.0 0.0 34.48637585096406" Properties=species:S:1:pos:R:3:initial_magmoms:R:1 pbc="T T T"
Si      -1.56118473       1.11151557       1.36000548       0.00000000
Si       1.03462677      -1.43425305       1.60199651       0.00000000
Si      -0.81168183      -1.10521134      -2.16098649       0.00000000
Si       2.00337678       1.63936044       0.08469859       0.00000000
Si       1.10327283      -2.44947843      -1.78153269       0.00000000
Si      -2.26488015       2.33937432      -0.73007698       0.00000000
Si       2.70389565      -2.43340020       0.22274763       0.00000000
Si      -0.28756737       2.47015044       2.87108003       0.00000000
Si       2.51683758      -0.25919019       2.94906756       0.00000000
Si       3.06730926       1.59905898      -2.10415291       0.00000000
