10
Lattice="16.28999089631971 0.0 0.0 0.0 16.28999089631971 0.0 0.0 0.0 34.48637585096406" Properties=species:S:1:pos:R:3:initial_magmoms:R:1 pbc="T T T"
Si       1.06393248      -0.04030146      -2.18885150       0.00000000
Si      -2.00337678      -1.63936044      -0.08469859       0.00000000
Si       2.10243531      -0.77677236       1.60551634       0.00000000
Si      -1.08488142       2.19616893       1.32538114       0.00000000
Si       0.51346080      -1.89855063       2.86436898       0.00000000
Si      -0.96875001      -3.07361349       1.51729793       0.00000000
Si      -2.29094415       0.83079000       2.78638144       0.00000000
Si       0.81249633       2.17132668      -2.94613825       0.00000000
Si       3.17838655      -0.93641436      -1.78311906       0.00000000
Si      -3.56456151      -0.52784487       1.27530689       0.00000000
