10
Lattice="16.28999089631971 0.0 0.0 0.0 16.28999089631971 0.0 0.0 0.0 34.48637585096406" Properties=species:S:1:pos:R:3:initial_magmoms:R:1 pbc="T T T"
Si       1.78054817       0.94506435      -1.20624720       0.00000000
Si       1.40054401      -1.24861221       1.45905385       0.00000000
Si      -1.28231622       1.48398642       1.43629973       0.00000000
Si      -1.41107238      -1.28508552      -1.52472771       0.00000000
Si      -2.61713511      -2.65046445      -0.06372741       0.00000000
Si       2.78107508      -2.52519435       0.04708428       0.00000000
Si       1.03342131       0.78125211      -3.56104589       0.00000000
Si       0.06136443      -2.59986771       2.82222863       0.00000000
Si       3.65071022      -0.52843131      -1.07423052       0.00000000
Si      -2.65719222       0.11652237       2.82040085       0.00000000
