10
Lattice="16.28999089631971 0.0 0.0 0.0 16.28999089631971 0.0 0.0 0.0 34.48637585096406" Properties=species:S:1:pos:R:3:initial_magmoms:R:1 pbc="T T T"
Si      -1.84002066      -0.80472600      -1.23275068       0.00000000
Si      -1.22258079       0.50380083       1.99796930       0.00000000
Si       0.89006931       1.90636983      -1.19567781       0.00000000
Si       1.81737986      -1.70378739      -0.01862265       0.00000000
Si      -0.42997455      -2.03439294      -2.64469267       0.00000000
Si       0.26515233       2.10460284       2.77546508       0.00000000
Si       2.28802077       0.71171010      -2.65207276       0.00000000
Si      -3.13867575      -2.11085820       0.39921451       0.00000000
Si       0.88948287      -3.50116083      -1.25054566       0.00000000
Si       3.60786752      -0.63169362      -1.25602900       0.00000000
