10
Lattice="16.28999089631971 0.0 0.0 0.0 16.28999089631971 0.0 0.0 0.0 34.48637585096406" Properties=species:S:1:pos:R:3:initial_magmoms:R:1 pbc="T T T"
Si      -1.96169067       1.26949599      -0.52546920       0.00000000
Si       1.87063839       0.19469808      -1.48701887       0.00000000
Si       0.74712686       0.16381224       2.35479869       0.00000000
Si      -0.54711594      -2.09117988      -2.23520121       0.00000000
Si       3.12470612      -1.08390402       0.14208395       0.00000000
Si      -1.03342131      -0.78125211       3.56104589       0.00000000
Si      -2.44449369      -2.06633763       2.03631817       0.00000000
Si       1.32149271      -1.16282907      -3.37070026       0.00000000
Si       2.61728891      -1.30968342       2.48681537       0.00000000
Si      -1.67022999       2.45359980      -2.62758742       0.00000000
