10
Lattice="16.28999089631971 0.0 0.0 0.0 16.28999089631971 0.0 0.0 0.0 34.48637585096406" Properties=species:S:1:pos:R:3:initial_magmoms:R:1 pbc="T T T"
Si      -1.35355239       1.35718506       1.35897089       0.00000000
Si      -1.35646830      -1.35721764      -1.35752246       0.00000000
Si       1.35891807       1.35747828      -1.35717759       0.00000000
Si       1.36213722      -1.35708732       1.35886743       0.00000000
Si       0.01508454       2.69498502       2.72239052       0.00000000
Si       2.71232640       0.00459378       2.71283779       0.00000000
Si      -2.71379997      -0.00006516      -2.71473454       0.00000000
Si       0.00193851      -2.71445157      -2.71466556       0.00000000
Si      -2.71397916       2.71564074       0.00013795       0.00000000
Si      -2.71409319      -2.71642266      -0.00086216       0.00000000
