10
Lattice="16.28999089631971 0.0 0.0 0.0 16.28999089631971 0.0 0.0 0.0 34.48637585096406" Properties=species:S:1:pos:R:3:initial_magmoms:R:1 pbc="T T T"
Si      -0.72063702       1.94834169      -1.07090603       0.00000000
Si       2.11297590       0.25215291       1.00610609       0.00000000
Si      -1.26063423      -0.28404873       1.97227694       0.00000000
Si      -0.09440055      -1.72941156      -1.67186595       0.00000000
Si      -1.84793760       0.91268213      -2.90882397       0.00000000
Si      -1.19228139      -2.59302591       2.33959153       0.00000000
Si      -2.25023544      -1.38082185      -2.60327451       0.00000000
Si       1.16019009       3.37244444      -1.40107877       0.00000000
Si       2.56372020      -1.54875546       2.48050294       0.00000000
Si       1.83168018      -1.59760917      -3.10694831       0.00000000
