10
Lattice="16.28999089631971 0.0 0.0 0.0 16.28999089631971 0.0 0.0 0.0 34.48637585096406" Properties=species:S:1:pos:R:3:initial_magmoms:R:1 pbc="T T T"
Si      -1.84260588       1.40058162       0.28916842       0.00000000
Si       1.01369412       0.25601364       2.10187681       0.00000000
Si       1.27951434       1.11653289      -1.65138103       0.00000000
Si       0.46335276      -2.10258288      -1.02972927       0.00000000
Si       1.77411132      -1.00190016      -2.74366862       0.00000000
Si       1.18092726      -1.99301634       2.73108109       0.00000000
Si      -0.91421109       2.92112280       1.89213055       0.00000000
Si       1.95515838      -3.00704278       0.70572959       0.00000000
Si       2.81590569       1.81317474       1.56323380       0.00000000
Si       0.00288333       3.03446862      -2.25461705       0.00000000
