10
Lattice="16.28999089631971 0.0 0.0 0.0 16.28999089631971 0.0 0.0 0.0 34.48637585096406" Properties=species:S:1:pos:R:3:initial_magmoms:R:1 pbc="T T T"
Si      -1.35706126       1.35663120      -1.35714311       0.00000000
Si       1.35752715      -1.35697329      -1.35762592       0.00000000
Si       1.35769005       1.35746199       1.35707413       0.00000000
Si      -1.35739031      -1.35962856       1.35655684       0.00000000
Si      -0.00197109      -2.71218726       2.71242395       0.00000000
Si      -2.71098899      -0.00006516       2.71638988       0.00000000
Si      -2.71568879       0.00153126      -2.71221703       0.00000000
Si      -2.71420813       2.71450044       0.00034486       0.00000000
Si       0.00288333       2.71393029      -2.71480351       0.00000000
Si       2.71489140       0.00112401      -2.71387238       0.00000000
