10
Lattice="16.28999089631971 0.0 0.0 0.0 16.28999089631971 0.0 0.0 0.0 34.48637585096406" Properties=species:S:1:pos:R:3:initial_magmoms:R:1 pbc="T T T"
Si       1.33345053       1.35734796       1.35434971       0.00000000
Si      -1.35541922       1.35255870      -1.35586711       0.00000000
Si      -1.34079569      -1.36230012       1.36738557       0.00000000
Si       1.35923760      -1.35915615      -1.35524636       0.00000000
Si       2.59496442      -0.05002659       2.69007677       0.00000000
Si      -2.70901790       2.71212210       0.00396594       0.00000000
Si       0.00197109       2.71218726      -2.71242395       0.00000000
Si      -2.71257975      -0.00291591      -2.71252741       0.00000000
Si      -2.71113560      -2.71741635       0.00734560       0.00000000
Si       2.71497285       2.71379997       0.00634550       0.00000000
