10
Lattice="16.28999089631971 0.0 0.0 0.0 16.28999089631971 0.0 0.0 0.0 34.48637585096406" Properties=species:S:1:pos:R:3:initial_magmoms:R:1 pbc="T T T"
Si       0.04352036       1.72444311      -1.64862212       0.00000000
Si       2.39409732       0.09254349       0.31803354       0.00000000
Si      -2.14042685      -0.02891475       1.14198249       0.00000000
Si      -0.08049378      -2.11820499      -1.32727789       0.00000000
Si       0.76112093       2.03238927       2.09525542       0.00000000
Si       0.37284715       0.54721368      -3.69280319       0.00000000
Si      -0.74886989      -1.47901797      -3.46581374       0.00000000
Si       3.08955000       2.30493726      -0.29789348       0.00000000
Si      -2.70503825      -2.18789361       1.74052836       0.00000000
Si      -3.98333084       0.59473161      -0.22160958       0.00000000
