10
Lattice="16.28999089631971 0.0 0.0 0.0 16.28999089631971 0.0 0.0 0.0 34.48637585096406" Properties=species:S:1:pos:R:3:initial_magmoms:R:1 pbc="T T T"
Si       0.76105740      -1.26359901       1.85698892       0.00000000
Si      -2.05196400       1.13656959       0.49694895       0.00000000
Si      -0.80040330      -1.81358199      -1.39807846       0.00000000
Si       1.62026530       1.59490503      -0.85167601       0.00000000
Si      -2.34353871       2.29641759      -1.54840465       0.00000000
Si      -1.10755125      -2.19194982       2.99248796       0.00000000
Si       2.21090812      -2.97950616       1.18705621       0.00000000
Si      -3.83223294      -0.38579607       0.59871831       0.00000000
Si      -2.41822836      -1.10200221      -2.92968824       0.00000000
Si       1.31020307       0.09392814       3.74067031       0.00000000
