10
Lattice="16.28999089631971 0.0 0.0 0.0 16.28999089631971 0.0 0.0 0.0 34.48637585096406" Properties=species:S:1:pos:R:3:initial_magmoms:R:1 pbc="T T T"
Si       1.23171785      -1.38510612       1.58918482       0.00000000
Si      -1.13502856      -1.93987836      -1.06146296       0.00000000
Si       1.17559880       1.41288057      -1.69652859       0.00000000
Si      -1.47970507       1.28866932       1.58962279       0.00000000
Si       0.73513349      -3.41337402      -0.92944628       0.00000000
Si       2.58574265       2.64090222      -0.03079980       0.00000000
Si       2.71127339      -2.64704355       0.22797576       0.00000000
Si      -0.34268133       3.05905023      -2.39746457       0.00000000
Si       2.57533334      -0.05486472       2.97039253       0.00000000
Si      -3.15502344       2.36033955       0.33933233       0.00000000
