10
Lattice="16.28999089631971 0.0 0.0 0.0 16.28999089631971 0.0 0.0 0.0 34.48637585096406" Properties=species:S:1:pos:R:3:initial_magmoms:R:1 pbc="T T T"
Si      -1.35993644      -1.35042471       1.35265988       0.00000000
Si       1.35855342      -1.35457866      -1.36062623       0.00000000
Si      -1.35602684       1.36057338      -1.36031586       0.00000000
Si       1.34610786       1.39167099       1.36293682       0.00000000
Si      -2.71012562      -2.71210581      -0.00131048       0.00000000
Si       2.71386513      -2.71042794       0.00106908       0.00000000
Si      -2.71061432       2.71822689       0.00113805       0.00000000
Si       0.00086337      -2.71204065      -2.71770037       0.00000000
Si      -2.71334476       0.00245979      -2.71735550       0.00000000
Si       2.71437012       2.71692676      -0.00103459       0.00000000
