10
Lattice="16.28999089631971 0.0 0.0 0.0 16.28999089631971 0.0 0.0 0.0 34.48637585096406" Properties=species:S:1:pos:R:3:initial_magmoms:R:1 pbc="T T T"
Si      -1.88145820       1.16585901      -0.82781143       0.00000000
Si       0.32932679      -1.17722943      -2.04418107       0.00000000
Si      -0.04352036      -1.72444311       1.64862212       0.00000000
Si       1.31386506       1.93170078       0.50757076       0.00000000
Si      -1.17369028       0.53481699      -2.98559069       0.00000000
Si       3.04602963       0.58049415       1.35072864       0.00000000
Si       2.35057695      -1.63189962       1.96665565       0.00000000
Si      -0.79239025      -3.20346108      -1.81719162       0.00000000
Si       0.71760056       0.30794616       3.74387754       0.00000000
Si      -0.12401414      -3.84264810       0.32134423       0.00000000
