10
Lattice="16.28999089631971 0.0 0.0 0.0 16.28999089631971 0.0 0.0 0.0 34.48637585096406" Properties=species:S:1:pos:R:3:initial_magmoms:R:1 pbc="T T T"
Si      -1.51828013       1.64616966      -0.70093598       0.00000000
Si      -1.17559880      -1.41288057       1.69652859       0.00000000
Si       1.41014385       1.22802165       1.66572879       0.00000000
Si       0.84931173      -0.08294868      -2.46315629       0.00000000
Si       3.37271418       2.26424484       0.39776608       0.00000000
Si      -2.95234163       2.76790625       0.76080302       0.00000000
Si      -2.31062736      -3.35275893       0.63506563       0.00000000
Si      -0.65953323      -1.12827798      -3.93389758       0.00000000
Si       0.06693561       2.59297255       3.28621001       0.00000000
Si      -2.79248786       1.69686414      -2.63179476       0.00000000
