10
Lattice="10.86 0.0 0.0 0.0 10.86 0.0 0.0 0.0 10.86" Properties=species:S:1:pos:R:3:initial_magmoms:R:1 pbc="T T T"
Si      -1.84773126       0.81294702      -0.77864028       0.00000000
Si       0.86726874      -1.90205298      -0.77864028       0.00000000
Si       0.86726874       0.81294702       1.93635972       0.00000000
Si      -0.49023126       2.17044702      -2.13614028       0.00000000
Si       2.22476874      -0.54455298      -2.13614028       0.00000000
Si       2.22476874       2.17044702       0.57885972       0.00000000
Si       0.86726874       0.81294702      -3.49364028       0.00000000
Si       0.86726874       3.52794702      -0.77864028       0.00000000
Si       3.58226874       0.81294702      -0.77864028       0.00000000
Si      -3.20523126      -0.54455298      -2.13614028       0.00000000
