10
Lattice="10.86 0.0 0.0 0.0 10.86 0.0 0.0 0.0 10.86" Properties=species:S:1:pos:R:3:initial_magmoms:R:1 pbc="T T T"
Si       1.18233906      -1.26248586      -1.44773574       0.00000000
Si      -1.28502036      -1.27709256       1.43123940       0.00000000
Si      -1.28502036       1.43790744      -1.28376060       0.00000000
Si       1.42997964       1.43790744       1.43123940       0.00000000
Si       2.67727236      -0.09432996      -2.53091214       0.00000000
Si      -0.06701706      -2.68799118      -2.56995384       0.00000000
Si      -2.64252036      -2.63459256       0.07373940       0.00000000
Si      -2.64252036       0.08040744      -2.64126060       0.00000000
Si       2.54419392      -2.80874352      -0.58078194       0.00000000
Si      -2.64252036       0.08040744       2.78873940       0.00000000
