10
Lattice="10.86 0.0 0.0 0.0 10.86 0.0 0.0 0.0 10.86" Properties=species:S:1:pos:R:3:initial_magmoms:R:1 pbc="T T T"
Si      -1.36185486       1.54625766      -0.86695380       0.00000000
Si      -0.92121036      -1.01418282       2.08071084       0.00000000
Si       0.28557456      -2.00949096      -1.77083160       0.00000000
Si      -2.61121098       0.12075234      -1.98917190       0.00000000
Si       0.13307844       2.71441356      -1.95013020       0.00000000
Si      -1.11421428      -1.18334904      -3.41797866       0.00000000
Si      -2.54419392       2.80874352       0.58078194       0.00000000
Si       3.00933858      -2.53994766       0.86276184       0.00000000
Si      -3.82921428      -1.18334904      -0.70297866       0.00000000
Si       1.60078572       1.53165096      -3.41797866       0.00000000
