10
Lattice="10.86 0.0 0.0 0.0 10.86 0.0 0.0 0.0 10.86" Properties=species:S:1:pos:R:3:initial_magmoms:R:1 pbc="T T T"
Si      -1.32937260      -1.33517184       1.33535646       0.00000000
Si      -1.32937260       1.37982816      -1.37964354       0.00000000
Si       1.38562740       1.37982816       1.33535646       0.00000000
Si      -2.68687260       0.02232816       2.69285646       0.00000000
Si       0.02812740      -2.69267184       2.69285646       0.00000000
Si      -2.66034162      -2.73172440       0.17867958       0.00000000
Si      -2.68687260       2.73732816      -0.02214354       0.00000000
Si       0.02812740       2.73732816       2.69285646       0.00000000
Si       2.74312740       0.02232816       2.69285646       0.00000000
Si       0.02812740       2.73732816      -2.73714354       0.00000000
