10
Lattice="10.86 0.0 0.0 0.0 10.86 0.0 0.0 0.0 10.86" Properties=species:S:1:pos:R:3:initial_magmoms:R:1 pbc="T T T"
Si       1.19536020       1.43796174       1.18582512       0.00000000
Si       1.19536020      -1.27703826      -1.52917488       0.00000000
Si      -1.51963980       1.43796174      -1.52917488       0.00000000
Si       2.55286020       0.08046174       2.54332512       0.00000000
Si       2.55286020      -2.63453826      -0.17167488       0.00000000
Si      -0.16213980       2.79546174       2.54332512       0.00000000
Si       2.55286020       2.79546174      -0.17167488       0.00000000
Si       2.55286020       0.08046174      -2.88667488       0.00000000
Si      -2.90526720       0.05813358       2.56546866       0.00000000
Si      -2.87713980       2.79546174      -0.17167488       0.00000000
