10
Lattice="10.86 0.0 0.0 0.0 10.86 0.0 0.0 0.0 10.86" Properties=species:S:1:pos:R:3:initial_magmoms:R:1 pbc="T T T"
Si      -1.36375536      -1.20572064       1.43545308       0.00000000
Si      -1.36375536       1.50927936      -1.27954692       0.00000000
Si       1.35124464       1.50927936       1.43545308       0.00000000
Si      -2.51515428      -2.45442516      -0.15903384       0.00000000
Si      -0.00625536      -2.56322064       2.79295308       0.00000000
Si      -2.84051988       0.27082668      -2.57465622       0.00000000
Si       2.68413588       0.07923456      -2.77439334       0.00000000
Si       2.70874464       0.15177936       2.79295308       0.00000000
Si      -0.00625536       2.86677936      -2.63704692       0.00000000
Si      -2.72125536       0.15177936       2.79295308       0.00000000
