10
Lattice="10.86 0.0 0.0 0.0 10.86 0.0 0.0 0.0 10.86" Properties=species:S:1:pos:R:3:initial_magmoms:R:1 pbc="T T T"
Si      -1.09885824      -1.29932298       1.32043482       0.00000000
Si       1.61614176      -1.29932298      -1.39456518       0.00000000
Si       1.61614176       1.41567702       1.32043482       0.00000000
Si      -1.18416354       2.25173412      -2.06010942       0.00000000
Si      -2.45635824      -2.65682298      -0.03706518       0.00000000
Si      -2.45635824       0.05817702       2.67793482       0.00000000
Si      -2.37809022       0.08627184      -2.82161262       0.00000000
Si       0.25864176      -2.65682298       2.67793482       0.00000000
Si      -2.38175004       2.96165232       0.06383508       0.00000000
Si       0.25864176      -2.65682298      -2.75206518       0.00000000
