10
Lattice="10.86 0.0 0.0 0.0 10.86 0.0 0.0 0.0 10.86" Properties=species:S:1:pos:R:3:initial_magmoms:R:1 pbc="T T T"
Si       1.28289180       1.16902470       1.25659974       0.00000000
Si      -1.43210820       1.16902470      -1.45840026       0.00000000
Si      -1.43210820      -1.54597530       1.25659974       0.00000000
Si       1.19758650      -0.70991820      -2.12394450       0.00000000
Si       2.55636798       2.50985460      -0.08672796       0.00000000
Si      -0.07460820       2.52652470       2.61409974       0.00000000
Si       2.64039180      -0.18847530       2.61409974       0.00000000
Si      -0.29786808       2.84293080      -2.41233180       0.00000000
Si      -2.78960820       2.52652470      -0.10090026       0.00000000
Si       2.38175004      -2.96165232      -0.06383508       0.00000000
