10
Lattice="16.28999089631971 0.0 0.0 0.0 16.28999089631971 0.0 0.0 0.0 34.281931910070035" Properties=species:S:1:pos:R:3:initial_magmoms:R:1 pbc="T T T"
Si       1.48313934       1.33120251       1.22187764       0.00000000
Si      -0.83728971       1.35250983      -1.72343702       0.00000000
Si      -1.37067970      -1.57808235       1.12340959       0.00000000
Si       0.06336810       0.07890876      -3.48762051       0.00000000
Si      -0.01244556       2.50160643       2.66387249       0.00000000
Si      -0.11416032      -2.20733735      -3.00530774       0.00000000
Si       2.70163134      -0.21473478       2.64203146       0.00000000
Si      -2.73855167      -0.22278204       2.64363243       0.00000000
Si      -3.28607486       1.04138712      -1.86875822       0.00000000
Si      -0.02493999      -2.92940969       2.64063619       0.00000000
