10
Lattice="16.28999089631971 0.0 0.0 0.0 16.28999089631971 0.0 0.0 0.0 34.281931910070035" Properties=species:S:1:pos:R:3:initial_magmoms:R:1 pbc="T T T"
Si       1.35518139      -1.35637875       1.35773667       0.00000000
Si      -1.35780408      -1.35757567      -1.35670821       0.00000000
Si       1.35698958       1.35775195      -1.35735957       0.00000000
Si      -1.35915615       1.35742615       1.36054779       0.00000000
Si       0.00558747      -2.71094337       2.70323469       0.00000000
Si       2.71381626      -2.71284930       0.00037710       0.00000000
Si       2.71396287       0.00087152      -2.71430776       0.00000000
Si      -2.71416812      -2.71472265       0.00099418       0.00000000
Si      -0.00040725      -2.71465749      -2.71482199       0.00000000
Si      -0.00037467       2.71529539      -2.71475342       0.00000000
