10
Lattice="16.28999089631971 0.0 0.0 0.0 16.28999089631971 0.0 0.0 0.0 34.281931910070035" Properties=species:S:1:pos:R:3:initial_magmoms:R:1 pbc="T T T"
Si      -1.86365745      -0.33526449       1.35245725       0.00000000
Si       2.01619701      -0.28049751       1.19966260       0.00000000
Si       0.22822290      -1.91200454      -1.36987248       0.00000000
Si      -0.32992137       2.09976471      -1.19705717       0.00000000
Si      -1.17234243      -1.04887400      -2.99860798       0.00000000
Si       1.91125683       2.76175773      -0.66359573       0.00000000
Si       3.32089569       0.79609230      -0.39924760       0.00000000
Si      -1.45624455       1.14433992       3.05016803       0.00000000
Si      -3.11251401      -0.23011254      -1.76445774       0.00000000
Si      -1.77606612      -2.58457859       1.94464367       0.00000000
