10
Lattice="16.28999089631971 0.0 0.0 0.0 16.28999089631971 0.0 0.0 0.0 34.281931910070035" Properties=species:S:1:pos:R:3:initial_magmoms:R:1 pbc="T T T"
Si      -1.96773426      -0.76716126       0.98358346       0.00000000
Si       1.82824299      -0.44215947       1.40617707       0.00000000
Si       0.40360104       2.32834599      -0.08546490       0.00000000
Si      -0.17008389      -1.13549445      -2.09654700       0.00000000
Si       3.36639366      -1.12723542      -0.22711793       0.00000000
Si      -0.82380159       2.99677356      -1.91533261       0.00000000
Si      -3.64252545       0.28934298      -0.24604156       0.00000000
Si       0.63881235      -3.36654746      -1.73569518       0.00000000
Si       2.65307085       1.60560756       2.27004795       0.00000000
Si       2.70615996       2.73901689       0.11234195       0.00000000
