10
Lattice="16.28999089631971 0.0 0.0 0.0 16.28999089631971 0.0 0.0 0.0 34.281931910070035" Properties=species:S:1:pos:R:3:initial_magmoms:R:1 pbc="T T T"
Si      -1.35602847      -1.35664749       1.35458273       0.00000000
Si       1.35769005      -1.35764118      -1.35780524       0.00000000
Si      -1.35780408       1.35757602      -1.35787380       0.00000000
Si       1.35900954       1.35785295       1.35948505       0.00000000
Si       2.71466334      -2.71441899      -0.00013713       0.00000000
Si      -2.71476108      -2.71435383       0.00013713       0.00000000
Si      -2.71477737       2.71495656      -0.00047995       0.00000000
Si      -2.71463076       0.00169416      -2.71519909       0.00000000
Si       2.71583622       0.00073305      -2.71406778       0.00000000
Si       0.00014661      -2.71252935       2.71742742       0.00000000
