10
Lattice="16.28999089631971 0.0 0.0 0.0 16.28999089631971 0.0 0.0 0.0 34.281931910070035" Properties=species:S:1:pos:R:3:initial_magmoms:R:1 pbc="T T T"
Si       1.35018036      -1.35599589       1.36044495       0.00000000
Si       1.35586557       1.35666378      -1.35657109       0.00000000
Si      -1.35835794      -1.35892809      -1.35681106       0.00000000
Si      -1.35865116       1.35855342       1.36099346       0.00000000
Si       2.71360449      -0.00167787      -2.71382781       0.00000000
Si      -0.00110772       2.71344159      -2.71423919       0.00000000
Si       2.71531494       2.71288773       0.00212548       0.00000000
Si      -2.71482624       2.71443528      -0.00185123       0.00000000
Si      -0.00138465      -2.71580853      -2.71375925       0.00000000
Si      -2.71572219      -0.00138465      -2.71420491       0.00000000
