10
Lattice="16.28999089631971 0.0 0.0 0.0 16.28999089631971 0.0 0.0 0.0 34.281931910070035" Properties=species:S:1:pos:R:3:initial_magmoms:R:1 pbc="T T T"
Si      -0.98442099       0.38082762      -2.06079092       0.00000000
Si      -0.81902862       1.17962406       1.82969629       0.00000000
Si       2.17367244       0.63728109      -0.69756914       0.00000000
Si      -0.64505142      -2.07014949       0.97172190       0.00000000
Si       0.48127176      -1.11472470      -3.27550330       0.00000000
Si       0.47749248       0.20561238       3.50947761       0.00000000
Si       3.40107507      -0.03114648       1.13229856       0.00000000
Si      -3.20956331      -0.20707848      -1.62643860       0.00000000
Si      -0.53915013       3.43842804       1.37686600       0.00000000
Si      -1.05246432      -3.54975390      -0.72598888       0.00000000
