10
Lattice="16.28999089631971 0.0 0.0 0.0 16.28999089631971 0.0 0.0 0.0 34.281931910070035" Properties=species:S:1:pos:R:3:initial_magmoms:R:1 pbc="T T T"
Si      -0.70851726       2.10836583      -0.93078925       0.00000000
Si       1.73674206       0.43414479       1.61773099       0.00000000
Si       0.53467038      -1.33257087      -2.26524848       0.00000000
Si      -2.91038769      -0.44116578       0.93219481       0.00000000
Si      -1.95556563      -2.63269206       0.88060048       0.00000000
Si       2.68110594      -1.78250067       1.91540117       0.00000000
Si       3.42505395       1.59786981       0.36116035       0.00000000
Si      -3.20013792       1.93476330       1.21995751       0.00000000
Si       1.59107688       0.36952236      -3.61194636       0.00000000
Si       1.39993002       3.49350453      -1.27844252       0.00000000
