10
Lattice="16.28999089631971 0.0 0.0 0.0 16.28999089631971 0.0 0.0 0.0 34.281931910070035" Properties=species:S:1:pos:R:3:initial_magmoms:R:1 pbc="T T T"
Si       0.69302547      -1.29699351       1.82259993       0.00000000
Si      -2.23953291       0.27069093       0.65817918       0.00000000
Si       0.49350555      -1.34491869      -1.89983716       0.00000000
Si       0.82601703       2.22239583      -0.40932650       0.00000000
Si      -0.01567098       0.28171926       3.44039948       0.00000000
Si      -3.20533443      -1.77777657       0.09609231       0.00000000
Si      -3.09158136       1.65289743      -1.08900046       0.00000000
Si       3.07174014       2.14208613       0.25029252       0.00000000
Si       2.18181744      -0.18119367      -3.15640780       0.00000000
Si      -2.31550947       0.72485613       3.01115517       0.00000000
