10
Lattice="16.28999089631971 0.0 0.0 0.0 16.28999089631971 0.0 0.0 0.0 34.281931910070035" Properties=species:S:1:pos:R:3:initial_magmoms:R:1 pbc="T T T"
Si       1.05060726      -2.09363967      -0.18320275       0.00000000
Si       1.28192526       1.63168038      -1.15057084       0.00000000
Si      -1.76443506      -0.34634169      -1.60782351       0.00000000
Si      -0.72236376       0.95910633       2.16394532       0.00000000
Si       0.16755894      -3.21087303       1.69747081       0.00000000
Si      -0.80995509       3.20842043       1.57175889       0.00000000
Si      -3.24776662       1.31243710      -1.11248359       0.00000000
Si       1.05370236       3.54368492       0.21930164       0.00000000
Si      -0.11864007       2.49481091      -2.77930634       0.00000000
Si       1.12658382      -2.54780487      -2.53617874       0.00000000
