10
Lattice="16.28999089631971 0.0 0.0 0.0 16.28999089631971 0.0 0.0 0.0 34.281931910070035" Properties=species:S:1:pos:R:3:initial_magmoms:R:1 pbc="T T T"
Si       0.40741290       1.47960441       1.69771078       0.00000000
Si      -1.78401564       1.01975400      -1.02705297       0.00000000
Si       1.86365745       0.33526449      -1.35245725       0.00000000
Si       0.08759133      -2.24931410       0.59218642       0.00000000
Si      -1.24885656       0.10515195      -3.11691499       0.00000000
Si       1.64261844      -1.85522249       2.41763175       0.00000000
Si       2.08220409       0.42310017       2.92733580       0.00000000
Si       0.80995509      -3.20842043      -1.57175889       0.00000000
Si      -2.11889406      -2.72086073       1.38807620       0.00000000
Si       1.05246432       3.54975390       0.72598888       0.00000000
