10
Lattice="16.28999089631971 0.0 0.0 0.0 16.28999089631971 0.0 0.0 0.0 34.281931910070035" Properties=species:S:1:pos:R:3:initial_magmoms:R:1 pbc="T T T"
Si      -1.64748915      -0.95561605       1.35156592       0.00000000
Si      -1.55883897       1.14909986      -1.32386610       0.00000000
Si       1.17991728      -1.58429602      -1.30531957       0.00000000
Si       0.84473424       1.59335259       1.66911963       0.00000000
Si       2.48183037       2.53916628       0.14302430       0.00000000
Si      -0.34942050      -2.46154510       2.54862309       0.00000000
Si      -0.20658978       2.50259523      -2.68983044       0.00000000
Si       2.51846658      -0.21696786      -2.68986473       0.00000000
Si      -2.81812113       2.56663122       0.16777587       0.00000000
Si      -0.83419461       3.41610585       1.54189931       0.00000000
