10
Lattice="16.28999089631971 0.0 0.0 0.0 16.28999089631971 0.0 0.0 0.0 34.281931910070035" Properties=species:S:1:pos:R:3:initial_magmoms:R:1 pbc="T T T"
Si      -2.23697538      -0.46331203       0.02797407       0.00000000
Si       0.18878481       2.24358912       0.71556716       0.00000000
Si       1.78693155      -1.41756720       0.74295844       0.00000000
Si      -1.48467060       0.16179228      -2.53580164       0.00000000
Si      -2.68654680       0.95247630       1.97913132       0.00000000
Si       1.38551337       2.01640878       2.72047851       0.00000000
Si      -2.35698381      -2.80708370       0.41587435       0.00000000
Si       1.71064548       3.19873698      -0.80384319       0.00000000
Si       3.79618902      -0.36209412       0.14127592       0.00000000
Si      -2.05499979       3.07063242       1.00045018       0.00000000
