10
Lattice="16.28999089631971 0.0 0.0 0.0 16.28999089631971 0.0 0.0 0.0 34.281931910070035" Properties=species:S:1:pos:R:3:initial_magmoms:R:1 pbc="T T T"
Si      -0.01374387      -2.22017225       0.75886527       0.00000000
Si      -1.90344026       1.09113678       0.86668200       0.00000000
Si       1.96231425       0.94610691       0.95883189       0.00000000
Si      -0.30390887      -0.57638907      -2.36415191       0.00000000
Si      -3.23242733      -0.89880075       0.74480967       0.00000000
Si       1.74215490       0.25800102      -3.07937625       0.00000000
Si      -2.13697370      -2.91847472      -0.04470366       0.00000000
Si      -1.90528103       3.09216780      -0.39002576       0.00000000
Si       0.35332489       3.60235431      -0.96527690       0.00000000
Si       1.57914087       3.27134151       1.01011769       0.00000000
