10
Lattice="16.28999089631971 0.0 0.0 0.0 16.28999089631971 0.0 0.0 0.0 34.281931910070035" Properties=species:S:1:pos:R:3:initial_magmoms:R:1 pbc="T T T"
Si       0.01374387       2.22017225      -0.75886527       0.00000000
Si       0.21311849      -0.25939870       2.34502258       0.00000000
Si       1.42102036      -1.26244146      -1.42311235       0.00000000
Si      -2.12322982      -0.69830247      -0.80356893       0.00000000
Si       0.09008012      -0.66683019      -3.36024828       0.00000000
Si      -3.21868345       1.32137149      -0.01405560       0.00000000
Si      -0.29016499       1.64378318      -3.12301718       0.00000000
Si       1.59446487      -3.34080111      -0.27271292       0.00000000
Si       1.97605812       3.16627915       0.19996662       0.00000000
Si      -0.81269932      -2.41144032       2.74893253       0.00000000
