10
Lattice="16.28999089631971 0.0 0.0 0.0 16.28999089631971 0.0 0.0 0.0 34.281931910070035" Properties=species:S:1:pos:R:3:initial_magmoms:R:1 pbc="T T T"
Si      -1.35369900      -1.33268490       1.38049989       0.00000000
Si      -1.35415512       1.35767376      -1.35742813       0.00000000
Si       1.35962856      -1.35596331      -1.35890226       0.00000000
Si       1.34592867       1.36252818       1.37655746       0.00000000
Si       2.70394452      -0.08612523       2.69384143       0.00000000
Si      -2.71055826       2.71406061       0.00095989       0.00000000
Si      -2.71360449       0.00144981      -2.71612470       0.00000000
Si      -2.71928970      -2.71120986       0.00089133       0.00000000
Si       0.00231318      -2.71417464      -2.71663893       0.00000000
Si       0.00146610       2.71562445      -2.71609042       0.00000000
