10
Lattice="16.28999089631971 0.0 0.0 0.0 16.28999089631971 0.0 0.0 0.0 34.281931910070035" Properties=species:S:1:pos:R:3:initial_magmoms:R:1 pbc="T T T"
Si       0.82688040       1.83848940       1.23244784       0.00000000
Si       1.46165283      -1.88636571       0.21157041       0.00000000
Si      -1.83635541      -0.84541842       1.32083356       0.00000000
Si       0.65497203      -0.32788512      -2.76230249       0.00000000
Si       0.52663941      -2.47634064      -1.90141413       0.00000000
Si       2.16075447       0.50236731       2.76133029       0.00000000
Si      -0.55467450      -2.23054083       2.76850550       0.00000000
Si       3.34816515      -0.96386301       1.30067235       0.00000000
Si       2.62238049       2.80460043      -0.14645249       0.00000000
Si      -3.22533855      -2.09631123      -0.21343943       0.00000000
