10
Lattice="16.28999089631971 0.0 0.0 0.0 16.28999089631971 0.0 0.0 0.0 34.281931910070035" Properties=species:S:1:pos:R:3:initial_magmoms:R:1 pbc="T T T"
Si       1.35782037       1.35773892      -1.35605686       0.00000000
Si      -1.35801585      -1.35770634      -1.35615970       0.00000000
Si      -1.36026387       1.35540945       1.36006784       0.00000000
Si       1.35832536      -1.35627282       1.36181622       0.00000000
Si       0.00006516       2.71469592      -2.71379353       0.00000000
Si      -2.71490769       0.00027693      -2.71379353       0.00000000
Si       0.00043983      -2.71505430      -2.71372496       0.00000000
Si      -2.71166598       2.71728603       0.00123415       0.00000000
Si       2.71562445      -0.00026064      -2.71351927       0.00000000
Si      -2.71363707      -2.71565703       0.00250258       0.00000000
