10
Lattice="16.28999089631971 0.0 0.0 0.0 16.28999089631971 0.0 0.0 0.0 34.281931910070035" Properties=species:S:1:pos:R:3:initial_magmoms:R:1 pbc="T T T"
Si       2.04462306      -1.09107162       0.53075317       0.00000000
Si      -1.02780126       0.57710583       2.11125396       0.00000000
Si       1.16110233       2.14340562       0.02255752       0.00000000
Si      -1.27278657      -0.60613461      -2.09034197       0.00000000
Si       2.13156279       1.39804038      -2.10360908       0.00000000
Si       0.56544219       0.08853615      -3.54907327       0.00000000
Si       0.90209133       1.03604400       3.46912776       0.00000000
Si       3.66309972      -0.22605633      -1.06795134       0.00000000
Si      -2.17898298      -1.45002177       2.84571048       0.00000000
Si      -1.97216514       2.79375129       1.81358378       0.00000000
