10
Lattice="16.28999089631971 0.0 0.0 0.0 16.28999089631971 0.0 0.0 0.0 34.281931910070035" Properties=species:S:1:pos:R:3:initial_magmoms:R:1 pbc="T T T"
Si       0.64301517      -0.72557289      -2.11598487       0.00000000
Si       0.56314530      -1.15450488       1.95791079       0.00000000
Si      -2.28672504       0.29453949       0.44230573       0.00000000
Si       1.05217110       2.11134690      -0.24628154       0.00000000
Si       2.90719485      -0.88990641      -1.55067549       0.00000000
Si      -0.34836165       3.24180774       1.22006036       0.00000000
Si      -2.39000364       2.63327850       0.26338823       0.00000000
Si      -0.13289382      -3.32529399       1.41971844       0.00000000
Si      -0.86413563      -0.01236411       3.61667727       0.00000000
Si       0.20326662       1.02890898      -3.59686231       0.00000000
