10
Lattice="16.28999089631971 0.0 0.0 0.0 16.28999089631971 0.0 0.0 0.0 34.281931910070035" Properties=species:S:1:pos:R:3:initial_magmoms:R:1 pbc="T T T"
Si      -1.87766685       1.09584459       0.73596493       0.00000000
Si       2.04164199       0.60852924       0.95667213       0.00000000
Si      -0.33858765       0.65694312      -2.22548142       0.00000000
Si       0.10327860      -2.33873901       0.17891750       0.00000000
Si       3.44217474      -0.52193160      -0.50966977       0.00000000
Si       2.39000364      -2.63327850      -0.26338823       0.00000000
Si      -3.52147446      -0.01715337      -0.77405217       0.00000000
Si      -0.89814915       3.27815073       1.21886049       0.00000000
Si       2.12745771      -0.34787295       3.14560898       0.00000000
Si      -1.22233644      -3.37141098      -1.36860405       0.00000000
