10
Lattice="16.28999089631971 0.0 0.0 0.0 16.28999089631971 0.0 0.0 0.0 34.281931910070035" Properties=species:S:1:pos:R:3:initial_magmoms:R:1 pbc="T T T"
Si       1.34296389       1.34840475      -1.38619069       0.00000000
Si      -1.37101527      -1.37101527      -1.38862471       0.00000000
Si       1.55810592      -1.19964447       1.43771646       0.00000000
Si      -1.26255645       1.38438936       1.58636300       0.00000000
Si      -2.70301599       2.69213427      -0.00335963       0.00000000
Si       2.70238068       2.70865233       0.01127876       0.00000000
Si       2.70130554      -2.72595231      -0.01714098       0.00000000
Si      -2.73162123      -2.69715159      -0.02372311       0.00000000
Si      -0.01049076       2.70451467      -2.74735556       0.00000000
Si       2.70513369      -0.01070253      -2.74677277       0.00000000
