10
Lattice="16.28999089631971 0.0 0.0 0.0 16.28999089631971 0.0 0.0 0.0 34.281931910070035" Properties=species:S:1:pos:R:3:initial_magmoms:R:1 pbc="T T T"
Si      -1.43845587      -1.19637018       1.47851199       0.00000000
Si       1.26255645      -1.38438936      -1.58636300       0.00000000
Si       1.32297606       1.32771645       1.59099107       0.00000000
Si      -1.44045954       1.30774491      -1.58972263       0.00000000
Si      -2.96979732       0.43049583       2.26422002       0.00000000
Si       2.60952768       2.72590688       0.09115571       0.00000000
Si       2.82066237      -2.58403383      -0.14864654       0.00000000
Si      -2.77865046      -2.69348634      -0.06928382       0.00000000
Si      -2.62037682       2.89204093      -0.28440307       0.00000000
Si       2.60552034      -0.03598461      -2.97255370       0.00000000
