10
Lattice="16.28999089631971 0.0 0.0 0.0 16.28999089631971 0.0 0.0 0.0 34.281931910070035" Properties=species:S:1:pos:R:3:initial_magmoms:R:1 pbc="T T T"
Si      -0.73997325      -1.85007534      -1.40816542       0.00000000
Si      -1.70852778       1.77973137      -0.42609037       0.00000000
Si       1.90040769       0.83017098      -1.54289349       0.00000000
Si       0.15571611      -0.61447509       2.56247300       0.00000000
Si       0.25027956       2.60626968       2.44334322       0.00000000
Si       3.55603599       0.23657967       0.69270110       0.00000000
Si      -2.10501009      -0.54995692      -3.07790213       0.00000000
Si      -2.02652487      -3.24826577       0.09166994       0.00000000
Si       0.62784918       2.15769195      -3.12144021       0.00000000
Si      -1.92982743       2.94635601       1.61735389       0.00000000
