10
Lattice="16.28999089631971 0.0 0.0 0.0 16.28999089631971 0.0 0.0 0.0 34.281931910070035" Properties=species:S:1:pos:R:3:initial_magmoms:R:1 pbc="T T T"
Si      -1.77951960      -0.92450637      -1.21460953       0.00000000
Si       0.95529447       1.66400721      -1.35451417       0.00000000
Si      -0.22129965       1.16662464       2.04344426       0.00000000
Si       1.70852778      -1.77973137       0.42609037       0.00000000
Si      -0.39648231      -2.32968829      -2.65181176       0.00000000
Si       1.95880734       0.82653831       2.86943359       0.00000000
Si       2.33637696       0.37796058      -2.69534984       0.00000000
Si       2.67139710       2.73124656      -0.11189629       0.00000000
Si       0.96855453      -3.62980671      -0.98207505       0.00000000
Si       3.60893547      -0.94956039      -1.11680312       0.00000000
