10
Lattice="16.28999089631971 0.0 0.0 0.0 16.28999089631971 0.0 0.0 0.0 34.281931910070035" Properties=species:S:1:pos:R:3:initial_magmoms:R:1 pbc="T T T"
Si      -2.00925747      -1.05547308       0.60168252       0.00000000
Si      -0.36031851       1.71075951       1.59870451       0.00000000
Si       1.62564426      -1.36486484       1.18176742       0.00000000
Si      -0.15571611       0.61447509      -2.56247300       0.00000000
Si       0.09456345       3.22074477      -0.11912978       0.00000000
Si       0.77190165      -3.44693861       0.43980315       0.00000000
Si      -1.71786195      -3.27279851      -0.14741239       0.00000000
Si       0.90241713       1.18850211       3.50755782       0.00000000
Si      -3.79618902       0.36209412      -0.14127592       0.00000000
Si      -2.04726204      -1.38019373       2.93244381       0.00000000
