10
Lattice="16.28999089631971 0.0 0.0 0.0 16.28999089631971 0.0 0.0 0.0 34.281931910070035" Properties=species:S:1:pos:R:3:initial_magmoms:R:1 pbc="T T T"
Si      -0.96080049      -0.08742843      -2.12973193       0.00000000
Si       2.14575138       0.92752002      -0.26469094       0.00000000
Si      -1.44790407       1.30416111       1.33415069       0.00000000
Si      -0.09765855      -2.23569566       0.77607481       0.00000000
Si      -1.71488088      -1.83199523       2.50985020       0.00000000
Si       0.05522310      -1.99020536      -3.05565314       0.00000000
Si      -1.28896254       0.23447826       3.49309084       0.00000000
Si      -3.52074141       1.30280904       0.02475157       0.00000000
Si       1.75746294      -2.94458759      -1.59664759       0.00000000
Si       1.90226475       3.22766802      -0.58985525       0.00000000
