10
Lattice="16.28999089631971 0.0 0.0 0.0 16.28999089631971 0.0 0.0 0.0 34.281931910070035" Properties=species:S:1:pos:R:3:initial_magmoms:R:1 pbc="T T T"
Si       2.04606377       0.83439009      -0.71522435       0.00000000
Si       0.38024511      -2.31061337      -0.23723110       0.00000000
Si      -1.60886556       0.57070386      -1.72931874       0.00000000
Si       0.30390887       0.57638907       2.36415191       0.00000000
Si       1.39226787      -2.08134724      -2.37241386       0.00000000
Si       0.29016499      -1.64378318       3.12301718       0.00000000
Si       1.67298041       3.15731151      -0.58862110       0.00000000
Si      -1.71781308      -3.31999064       0.07466609       0.00000000
Si      -1.83306483      -2.34208565       2.31944825       0.00000000
Si       1.71118535      -2.90622464       1.69990483       0.00000000
