10
Lattice="16.28999089631971 0.0 0.0 0.0 16.28999089631971 0.0 0.0 0.0 34.281931910070035" Properties=species:S:1:pos:R:3:initial_magmoms:R:1 pbc="T T T"
Si      -1.36101484       1.35487188      -1.35379425       0.00000000
Si       1.35682668       1.35588186       1.35732529       0.00000000
Si       1.35646830      -1.35666378      -1.35893654       0.00000000
Si      -1.35774055      -1.35887922       1.35701675       0.00000000
Si      -0.00720018       2.70945054      -2.69036867       0.00000000
Si      -2.71509407       2.71270854       0.00143984       0.00000000
Si      -0.00014661       2.71326240       2.71471914       0.00000000
Si      -2.71479346      -0.00149868       2.71468486       0.00000000
Si       2.71463076      -0.00169416       2.71519909       0.00000000
Si      -2.71612158      -2.71422351      -0.00034282       0.00000000
