10
Lattice="16.28999089631971 0.0 0.0 0.0 16.28999089631971 0.0 0.0 0.0 34.281931910070035" Properties=species:S:1:pos:R:3:initial_magmoms:R:1 pbc="T T T"
Si       1.53355756       1.13424012       1.37663087       0.00000000
Si      -1.26338724      -1.53965165       1.33886587       0.00000000
Si      -0.83657295       1.42357170      -1.77844478       0.00000000
Si       0.50616681       0.12660588      -3.24848912       0.00000000
Si      -0.51965100      -2.02543574      -2.84457917       0.00000000
Si       0.16568559       2.48954043       2.89685370       0.00000000
Si      -2.54697408      -0.22489796       2.91217088       0.00000000
Si       2.79007694       0.50498511      -2.75208647       0.00000000
Si       2.90423726       2.71232247       0.25322127       0.00000000
Si      -2.44169181      -3.14998331      -0.08861884       0.00000000
