10
Lattice="16.28999089631971 0.0 0.0 0.0 16.28999089631971 0.0 0.0 0.0 34.281931910070035" Properties=species:S:1:pos:R:3:initial_magmoms:R:1 pbc="T T T"
Si       1.35711990      -1.35755973       1.35722244       0.00000000
Si       1.35814617       1.35710361      -1.35739385       0.00000000
Si      -1.35754344      -1.35809730      -1.35718816       0.00000000
Si      -1.35845568       1.35734796       1.35756526       0.00000000
Si       2.71480995      -0.00001629       2.71386209       0.00000000
Si      -0.00043983       2.71505430       2.71372496       0.00000000
Si      -0.00029322      -2.71423980       2.71475342       0.00000000
Si       2.71518462       2.71479366       0.00020569       0.00000000
Si       2.71508688      -2.71490769      -0.00027426       0.00000000
Si       0.00447975      -2.71344159      -2.71674178       0.00000000
