10
Lattice="16.28999089631971 0.0 0.0 0.0 16.28999089631971 0.0 0.0 0.0 34.281931910070035" Properties=species:S:1:pos:R:3:initial_magmoms:R:1 pbc="T T T"
Si      -1.35506736       1.35734796      -1.35886798       0.00000000
Si      -1.34477208      -1.37308410       1.35393138       0.00000000
Si       1.36148792      -1.35648459      -1.35777095       0.00000000
Si       1.37174736       1.36904418       1.36671854       0.00000000
Si      -2.72585457      -0.08703747       2.69476705       0.00000000
Si      -2.70855459      -2.71544526       0.00311966       0.00000000
Si       2.62686743      -0.00180819       2.79720152       0.00000000
Si      -2.71199178       2.71614573       0.00281112       0.00000000
Si      -2.71275741      -0.00019548      -2.71550763       0.00000000
Si       0.00183043      -2.71461447      -2.71509624       0.00000000
