10
Lattice="16.28999089631971 0.0 0.0 0.0 16.28999089631971 0.0 0.0 0.0 34.281931910070035" Properties=species:S:1:pos:R:3:initial_magmoms:R:1 pbc="T T T"
Si       1.82829186       0.80216847       1.31896379       0.00000000
Si       1.14319962      -1.52630784      -1.45485744       0.00000000
Si      -1.34991972      -1.44054099       1.39184721       0.00000000
Si      -1.55810592       1.19964447      -1.43771646       0.00000000
Si       2.64674009       2.59496442      -0.09338403       0.00000000
Si       2.50331169      -0.17200611      -2.82558697       0.00000000
Si      -0.21514203       2.54804922      -2.82390716       0.00000000
Si       2.53702612      -2.84903955      -0.06407297       0.00000000
Si      -2.82066237       2.58403383       0.14864654       0.00000000
Si       3.44551486      -1.07632917       1.31964942       0.00000000
