10
Lattice="16.28999089631971 0.0 0.0 0.0 16.28999089631971 0.0 0.0 0.0 34.281931910070035" Properties=species:S:1:pos:R:3:initial_magmoms:R:1 pbc="T T T"
Si       1.25558433       1.16887266      -1.57025049       0.00000000
Si      -2.26417968       0.16433352      -0.56530937       0.00000000
Si       0.97989237       0.87192225       1.94508934       0.00000000
Si       0.05952366      -2.30353632       0.49479140       0.00000000
Si      -2.90719485       0.88990641       1.55067549       0.00000000
Si       0.02564046      -0.51836409       3.52884692       0.00000000
Si       3.30242676       1.35014778      -0.38080391       0.00000000
Si      -2.72396493      -1.97833905      -1.40730837       0.00000000
Si       0.81137232      -3.30845013      -1.45201204       0.00000000
Si       0.36574308       3.09361761       2.01900123       0.00000000
