10
Lattice="16.28999089631971 0.0 0.0 0.0 16.28999089631971 0.0 0.0 0.0 34.281931910070035" Properties=species:S:1:pos:R:3:initial_magmoms:R:1 pbc="T T T"
Si       1.31507541       1.32686937      -1.40285172       0.00000000
Si      -2.27615283       0.26282286       0.47953593       0.00000000
Si       0.87847083       0.98909622       1.94738623       0.00000000
Si       0.61985079      -2.27810763      -0.12615758       0.00000000
Si       3.08339956       0.18767709       1.55972593       0.00000000
Si      -0.26999046      -0.35336268       3.46309413       0.00000000
Si       0.03083697       3.36230487      -1.01471147       0.00000000
Si       2.66669322      -2.09683251       1.06328899       0.00000000
Si      -3.33966177      -1.52816490      -0.60209391       0.00000000
Si      -2.49075729      -0.44572698       2.74848686       0.00000000
