10
Lattice="16.28999089631971 0.0 0.0 0.0 16.28999089631971 0.0 0.0 0.0 34.281931910070035" Properties=species:S:1:pos:R:3:initial_magmoms:R:1 pbc="T T T"
Si       0.05022207       1.04019795       2.03202837       0.00000000
Si       0.61414929      -2.22169536      -0.07391189       0.00000000
Si       1.14846129       1.34245890      -1.51570790       0.00000000
Si      -2.22076683      -0.09236430      -0.71460727       0.00000000
Si       0.26999046       0.35336268      -3.46309413       0.00000000
Si      -2.00616237       0.61618554      -2.98355820       0.00000000
Si      -1.24097220      -0.41886477       3.41506512       0.00000000
Si      -0.36574308      -3.09361761      -2.01900123       0.00000000
Si       2.25935784       1.38342825       2.71029677       0.00000000
Si      -3.62129958       1.03809654       0.75173462       0.00000000
