10
Lattice="16.28999089631971 0.0 0.0 0.0 16.28999089631971 0.0 0.0 0.0 34.281931910070035" Properties=species:S:1:pos:R:3:initial_magmoms:R:1 pbc="T T T"
Si      -2.18733975      -0.99662220      -0.11014791       0.00000000
Si       1.57854728      -0.84975156       1.60845742       0.00000000
Si       0.87964371      -0.52690005      -2.24296521       0.00000000
Si      -1.35721764       2.07532971       1.26795224       0.00000000
Si      -0.12970098      -1.84419090       2.85734375       0.00000000
Si      -0.93139704      -2.06909064      -2.61595284       0.00000000
Si      -2.45159613      -0.18083529      -2.52836246       0.00000000
Si       0.56482317       3.19987728      -1.48800809       0.00000000
Si       1.04873391       1.62145773      -3.23313081       0.00000000
Si      -1.00504413      -3.55284900       1.35962218       0.00000000
