10
Lattice="16.28999089631971 0.0 0.0 0.0 16.28999089631971 0.0 0.0 0.0 34.281931910070035" Properties=species:S:1:pos:R:3:initial_magmoms:R:1 pbc="T T T"
Si      -0.61932951      -1.30486158      -1.81762905       0.00000000
Si       0.59473161      -1.90697256       1.25653635       0.00000000
Si       1.81104075       1.54219059       0.37298763       0.00000000
Si      -1.52019909       1.88825535       0.08759038       0.00000000
Si      -1.25594271       1.07246844       2.50580493       0.00000000
Si       0.33492240       0.08542476      -3.40138662       0.00000000
Si       0.93139704       2.06909064       2.61595284       0.00000000
Si      -0.22900482       3.34731807      -1.29544637       0.00000000
Si      -2.98901952      -1.05109596      -1.83788968       0.00000000
Si       3.11628907      -1.91976021       0.57504545       0.00000000
