10
Lattice="16.28999089631971 0.0 0.0 0.0 16.28999089631971 0.0 0.0 0.0 34.281931910070035" Properties=species:S:1:pos:R:3:initial_magmoms:R:1 pbc="T T T"
Si      -0.05022207      -1.04019795      -2.03202837       0.00000000
Si      -0.92646117       2.10422817       0.04847468       0.00000000
Si       2.20913577       0.34323030       0.67826840       0.00000000
Si      -1.29119427      -1.45906272       1.38303675       0.00000000
Si       2.04004557      -1.80512748       1.66843399       0.00000000
Si       1.72522503       1.92164985       2.42339112       0.00000000
Si      -0.55796508       2.67133194       2.27515596       0.00000000
Si       0.22900482      -3.34731807       1.29544637       0.00000000
Si       1.09823922       0.30226095      -3.54773627       0.00000000
Si      -2.27098890      -1.13256225      -2.74663564       0.00000000
