10
Lattice="16.28999089631971 0.0 0.0 0.0 16.28999089631971 0.0 0.0 0.0 34.281931910070035" Properties=species:S:1:pos:R:3:initial_magmoms:R:1 pbc="T T T"
Si       0.39978592       1.91174553      -1.29661195       0.00000000
Si       1.26224694      -0.13809033       1.99075290       0.00000000
Si      -2.26308566      -0.42454998       0.52489095       0.00000000
Si       0.80557960      -1.83172905      -1.30017728       0.00000000
Si       1.63533029      -2.46101175       1.86414965       0.00000000
Si      -2.01959903      -2.72469798       0.85005526       0.00000000
Si      -1.16044814      -3.07372752      -1.36579293       0.00000000
Si       1.15321308       0.95594607      -3.30927102       0.00000000
Si       1.66968590       3.42490734      -0.01018174       0.00000000
Si       3.48738926       0.44981577       1.55640058       0.00000000
