10
Lattice="16.28999089631971 0.0 0.0 0.0 16.28999089631971 0.0 0.0 0.0 34.281931910070035" Properties=species:S:1:pos:R:3:initial_magmoms:R:1 pbc="T T T"
Si       0.48391074      -1.57841955      -1.74512272       0.00000000
Si      -2.28319011       0.74968209      -0.14823516       0.00000000
Si       1.02581781       2.15204162      -0.40390995       0.00000000
Si       0.51965100       2.02543574       2.84457917       0.00000000
Si      -1.72522503      -1.92164985      -2.42339112       0.00000000
Si      -1.92204081      -1.12454757       2.75596033       0.00000000
Si      -2.65168620       0.18257832      -2.37491644       0.00000000
Si      -0.56482317      -3.19987728       1.48800809       0.00000000
Si      -0.31692195       3.44900744       1.06613440       0.00000000
Si       0.81269932       2.41144032      -2.74893253       0.00000000
