10
Lattice="16.28999089631971 0.0 0.0 0.0 16.28999089631971 0.0 0.0 0.0 34.281931910070035" Properties=species:S:1:pos:R:3:initial_magmoms:R:1 pbc="T T T"
Si       0.98442099      -0.38082762       2.06079092       0.00000000
Si      -2.22514232      -0.58790610       0.43435232       0.00000000
Si       0.18881739       2.28017646      -0.58334168       0.00000000
Si       1.46569275      -1.49555232      -1.21471237       0.00000000
Si       3.15809343       0.25645347       1.36322178       0.00000000
Si      -1.85205897      -2.91082752       0.30774907       0.00000000
Si      -1.81770336       2.97509157      -1.56658232       0.00000000
Si      -3.48738926      -0.44981577      -1.55640058       0.00000000
Si       3.70687095      -0.83355930      -0.68125093       0.00000000
Si       1.72296072       2.58370803      -2.33573217       0.00000000
