10
Lattice="16.28999089631971 0.0 0.0 0.0 16.28999089631971 0.0 0.0 0.0 34.281931910070035" Properties=species:S:1:pos:R:3:initial_magmoms:R:1 pbc="T T T"
Si       0.56128661      -0.77450805       2.18948537       0.00000000
Si      -0.90848874      -1.77271038      -1.38372239       0.00000000
Si       1.79607676       0.96788664      -1.31217596       0.00000000
Si      -1.61722300       1.87849764      -0.00068564       0.00000000
Si      -1.72568182      -1.18263771       2.74900109       0.00000000
Si       0.43810489       2.25960219      -2.78749972       0.00000000
Si      -2.30231524      -0.44997867      -2.77450686       0.00000000
Si      -3.44551486       1.07632917      -1.31964942       0.00000000
Si      -0.77608329       3.61494648       1.33778458       0.00000000
Si      -3.26389765      -1.98830853       1.10785553       0.00000000
