10
Lattice="16.28999089631971 0.0 0.0 0.0 16.28999089631971 0.0 0.0 0.0 34.281931910070035" Properties=species:S:1:pos:R:3:initial_magmoms:R:1 pbc="T T T"
Si      -2.00652075       0.69491511      -0.98324064       0.00000000
Si       1.53414333       0.30353157      -1.75239049       0.00000000
Si      -0.18881739      -2.28017646       0.58334168       0.00000000
Si       0.93458988       1.27001727       1.81402944       0.00000000
Si       3.01979133       0.30568185       1.44930376       0.00000000
Si       0.71387667       2.27454012      -2.75188078       0.00000000
Si      -1.55870865       2.62884762      -2.21351702       0.00000000
Si       3.64759164       0.58502277      -0.78402822       0.00000000
Si      -3.44823788       1.50405570       0.62304018       0.00000000
Si       0.79560360      -2.66100408       2.64413260       0.00000000
