10
Lattice="16.28999089631971 0.0 0.0 0.0 16.28999089631971 0.0 0.0 0.0 34.281931910070035" Properties=species:S:1:pos:R:3:initial_magmoms:R:1 pbc="T T T"
Si      -0.67862511       1.60865379       1.52229004       0.00000000
Si      -1.50784638       0.11720655      -1.81485221       0.00000000
Si      -0.37546821      -2.03365989       1.21872336       0.00000000
Si       2.24433846      -0.01141929      -0.89047368       0.00000000
Si       1.78013862      -2.89393479       1.08666928       0.00000000
Si       2.45827503      -2.40134148      -1.12029988       0.00000000
Si       1.12528062       1.64312343       3.11873193       0.00000000
Si      -1.92455273      -2.16730305      -2.31128914       0.00000000
Si      -1.95641923      -3.16490265      -0.17586641       0.00000000
Si      -0.85206963       3.68701344       0.37189061       0.00000000
