10
Lattice="16.28999089631971 0.0 0.0 0.0 16.28999089631971 0.0 0.0 0.0 34.281931910070035" Properties=species:S:1:pos:R:3:initial_magmoms:R:1 pbc="T T T"
Si       2.15560683      -0.86027490      -0.13205408       0.00000000
Si      -1.58095102      -1.13124276      -1.39458977       0.00000000
Si       0.37546821       2.03365989      -1.21872336       0.00000000
Si      -0.42053287      -0.33980940       2.37320234       0.00000000
Si      -2.39550056       0.84489714       2.57025500       0.00000000
Si       1.87572834      -3.11907888       0.32077622       0.00000000
Si      -0.30315690       3.64231368       0.30356668       0.00000000
Si       2.83374324      -0.36768159      -2.33902324       0.00000000
Si       3.53525580       0.15874605       1.52726092       0.00000000
Si      -1.54908452      -0.13364316      -3.53001250       0.00000000
