10
Lattice="16.28999089631971 0.0 0.0 0.0 16.28999089631971 0.0 0.0 0.0 34.281931910070035" Properties=species:S:1:pos:R:3:initial_magmoms:R:1 pbc="T T T"
Si      -0.24123861      -2.30172813      -0.06414153       0.00000000
Si      -0.76287699       1.15393703       1.90686496       0.00000000
Si       2.25181557       0.75234943      -0.16242788       0.00000000
Si      -1.73834988      -0.20230551      -1.75084780       0.00000000
Si      -1.19560129       2.69191340      -0.69726060       0.00000000
Si       1.02620484       2.24353115      -1.76438918       0.00000000
Si       0.03429045       0.67306063      -3.20978480       0.00000000
Si      -2.61104428      -2.16606501      -0.38049537       0.00000000
Si       3.20269545      -1.07274537       1.15811287       0.00000000
Si       0.56694087       0.03538188       3.63782924       0.00000000
