10
Lattice="16.28999089631971 0.0 0.0 0.0 16.28999089631971 0.0 0.0 0.0 34.281931910070035" Properties=species:S:1:pos:R:3:initial_magmoms:R:1 pbc="T T T"
Si       0.24123861       2.30172813       0.06414153       0.00000000
Si       0.86022603      -0.94716576       1.93747875       0.00000000
Si       1.43772282      -0.84618405      -1.69572243       0.00000000
Si      -2.36980567       0.13566312      -0.31635384       0.00000000
Si      -1.49711127       2.09942262      -1.68670627       0.00000000
Si       3.35184669      -0.77356323      -0.21326802       0.00000000
Si      -0.97296586      -2.12214717       2.72407811       0.00000000
Si       3.44393406       1.22898276       1.22225440       0.00000000
Si       1.14997626      -3.32309484       1.64971605       0.00000000
Si       2.21201910       0.55003185       3.14608893       0.00000000
