10
Lattice="16.28999089631971 0.0 0.0 0.0 16.28999089631971 0.0 0.0 0.0 34.281931910070035" Properties=species:S:1:pos:R:3:initial_magmoms:R:1 pbc="T T T"
Si      -2.09805819      -1.00937727       0.31189719       0.00000000
Si      -0.38024511       2.31061337       0.23723110       0.00000000
Si       1.01202277       0.22926613      -2.13518276       0.00000000
Si       1.33094024      -0.59561127       1.93713593       0.00000000
Si      -2.21330994      -0.03147228       2.55667935       0.00000000
Si      -0.09008012       0.66683019       3.36024828       0.00000000
Si       1.66581866       3.14500346      -0.47799324       0.00000000
Si      -1.52976525      -3.36399903       0.13805342       0.00000000
Si       3.53742563      -0.12406464       1.14124615       0.00000000
Si      -0.68985285       0.27931553      -3.71774047       0.00000000
