10
Lattice="16.28999089631971 0.0 0.0 0.0 16.28999089631971 0.0 0.0 0.0 34.56954931742767" Properties=species:S:1:pos:R:3:initial_magmoms:R:1 pbc="T T T"
Si       1.35187452       1.35415512       1.36874059       0.00000000
Si      -1.36335897      -1.36088452       1.36715039       0.00000000
Si       1.35884664      -1.37346366      -1.36247312       0.00000000
Si      -1.41361362       1.33643160      -1.38534435       0.00000000
Si      -0.06599079      -2.59999836      -2.76503454       0.00000000
Si       2.70425403       2.70225036      -0.01786901       0.00000000
Si       2.68990254      -2.71939641       0.02817074       0.00000000
Si       2.70840798      -0.00302994       2.72787775       0.00000000
Si      -0.00571779       2.71103067       2.72756662       0.00000000
Si      -0.00583182      -2.72015595       2.72829258       0.00000000
