10
Lattice="16.28999089631971 0.0 0.0 0.0 16.28999089631971 0.0 0.0 0.0 34.56954931742767" Properties=species:S:1:pos:R:3:initial_magmoms:R:1 pbc="T T T"
Si      -1.42483743      -1.22653470      -1.40256142       0.00000000
Si       1.33105590      -1.34593275       1.39064387       0.00000000
Si      -1.35884664       1.37346366       1.36247312       0.00000000
Si       1.70344530       0.97841487      -1.32054815       0.00000000
Si       0.36856125      -2.17685129      -2.54131758       0.00000000
Si       2.70031185      -2.59579751      -0.00868388       0.00000000
Si       0.79228044       1.02445041      -3.52091545       0.00000000
Si       3.51235206      -0.67829768      -1.22071715       0.00000000
Si      -2.70529659      -2.69449862      -0.06784969       0.00000000
Si       2.70736542       0.01171903       2.72986550       0.00000000
