10
Lattice="16.28999089631971 0.0 0.0 0.0 16.28999089631971 0.0 0.0 0.0 34.56954931742767" Properties=species:S:1:pos:R:3:initial_magmoms:R:1 pbc="T T T"
Si       1.24131429       1.50032040      -1.35063305       0.00000000
Si      -1.46626290      -1.35863065      -1.29124253       0.00000000
Si       0.26086806       0.40739172       2.36269174       0.00000000
Si       1.34636850      -1.61356915       1.64267676       0.00000000
Si       1.98299799       2.21758539       2.15278532       0.00000000
Si      -0.05563035      -2.62488493      -2.78181319       0.00000000
Si       2.66009184       0.09836065      -2.78084524       0.00000000
Si       1.83689298       3.41296188       0.05665952       0.00000000
Si      -2.75846552       0.07963529      -2.77272139       0.00000000
Si       2.96080524      -2.58062500       0.23880658       0.00000000
