10
Lattice="16.28999089631971 0.0 0.0 0.0 16.28999089631971 0.0 0.0 0.0 34.56954931742767" Properties=species:S:1:pos:R:3:initial_magmoms:R:1 pbc="T T T"
Si      -0.79733034      -1.58728131       1.56855961       0.00000000
Si      -2.08839429       1.09889082      -0.46423474       0.00000000
Si       1.50348555       1.66661361       0.89338136       0.00000000
Si       1.54588842      -1.11006576      -1.57229312       0.00000000
Si       1.21440321      -2.80941901       1.74680030       0.00000000
Si       0.63224748       3.59179839      -0.18785104       0.00000000
Si       3.59994339       0.58717305       0.68382064       0.00000000
Si      -1.67135400       3.29817114       0.35378497       0.00000000
Si       1.77640821      -3.26775755      -0.45255022       0.00000000
Si       2.94202287      -1.25442774       2.06573914       0.00000000
