10
Lattice="16.28999089631971 0.0 0.0 0.0 16.28999089631971 0.0 0.0 0.0 34.56954931742767" Properties=species:S:1:pos:R:3:initial_magmoms:R:1 pbc="T T T"
Si       1.35653346      -1.35718506       1.35913716       0.00000000
Si      -1.35759231       1.35687555       1.35882603       0.00000000
Si      -1.35187452      -1.35415512      -1.36874059       0.00000000
Si       1.35237951       1.34809524      -1.38660960       0.00000000
Si       2.71433754      -2.71589975      -0.00134821       0.00000000
Si      -2.71523349      -2.71503964      -0.00159020       0.00000000
Si      -0.00076563       2.71451673       2.71595816       0.00000000
Si      -2.71627605       2.71467963      -0.00466689       0.00000000
Si       2.71440270      -0.00017919       2.71664955       0.00000000
Si       2.71510317       2.71663443       0.00155563       0.00000000
