10
Lattice="16.28999089631971 0.0 0.0 0.0 16.28999089631971 0.0 0.0 0.0 34.56954931742767" Properties=species:S:1:pos:R:3:initial_magmoms:R:1 pbc="T T T"
Si       0.81358776       1.83834279      -1.22371295       0.00000000
Si      -1.43405757       1.28360313       1.41758393       0.00000000
Si       1.30691412      -1.43723412       1.40971590       0.00000000
Si      -1.46580678      -1.31380479      -1.46566471       0.00000000
Si       2.62596429       2.74051557       0.02383572       0.00000000
Si      -2.69398644       2.69915526      -0.14326321       0.00000000
Si       1.18135080       1.08295920      -3.46630935       0.00000000
Si      -0.07301178       2.64207510       2.79957849       0.00000000
Si       2.64298734      -0.07289775       2.80230949       0.00000000
Si      -2.73142249      -2.76024276      -0.08793115       0.00000000
