10
Lattice="16.28999089631971 0.0 0.0 0.0 16.28999089631971 0.0 0.0 0.0 34.56954931742767" Properties=species:S:1:pos:R:3:initial_magmoms:R:1 pbc="T T T"
Si      -1.53479493       1.20425454       1.42053271       0.00000000
Si       1.01586069       1.85849352      -1.15676691       0.00000000
Si      -1.84336011      -0.96270642      -1.24612924       0.00000000
Si       1.81161090      -1.61126019       0.33003567       0.00000000
Si       0.11831427      -1.46153880       2.95984647       0.00000000
Si      -0.44198028      -2.28416751      -2.55558993       0.00000000
Si       2.28991788       0.45561501      -2.55337748       0.00000000
Si       2.44920150      -1.06207542       2.72394373       0.00000000
Si      -0.17218530       2.38343877       2.98639590       0.00000000
Si      -2.90371856      -2.55086739       0.13934993       0.00000000
