10
Lattice="16.28999089631971 0.0 0.0 0.0 16.28999089631971 0.0 0.0 0.0 34.56954931742767" Properties=species:S:1:pos:R:3:initial_magmoms:R:1 pbc="T T T"
Si      -0.13089015      -2.15023113       0.91851344       0.00000000
Si       2.33088723       0.39946338      -0.23590274       0.00000000
Si       0.33348888       1.02104091       2.15721022       0.00000000
Si       1.53420849       2.51450811       0.82724978       0.00000000
Si       1.69329663      -0.14972139      -2.62981079       0.00000000
Si      -0.11831427       1.46153880      -2.95984647       0.00000000
Si      -2.02033467       1.17631719       2.40417522       0.00000000
Si      -3.04436317       1.58008113       0.11252395       0.00000000
Si      -1.65310920       2.66579334      -1.53931375       0.00000000
Si      -1.71787824      -3.41503560      -0.36595345       0.00000000
