10
Lattice="16.28999089631971 0.0 0.0 0.0 16.28999089631971 0.0 0.0 0.0 34.56954931742767" Properties=species:S:1:pos:R:3:initial_magmoms:R:1 pbc="T T T"
Si      -2.33088723      -0.39946338       0.23590274       0.00000000
Si      -0.79667874       2.11504473       1.06315251       0.00000000
Si       1.34258922      -0.89394633       1.94066644       0.00000000
Si      -0.63759060      -0.54918477      -2.39390806       0.00000000
Si      -1.99739835       0.62157753       2.39311296       0.00000000
Si       3.31222941      -0.27582228       0.82341256       0.00000000
Si       3.00578193       1.98835740       0.03916732       0.00000000
Si      -2.46177738      -2.54969451       1.15441618       0.00000000
Si      -2.44920150       1.06207542      -2.72394373       0.00000000
Si       1.14121224       3.25593117       1.63406894       0.00000000
