10
Lattice="16.28999089631971 0.0 0.0 0.0 16.28999089631971 0.0 0.0 0.0 34.56954931742767" Properties=species:S:1:pos:R:3:initial_magmoms:R:1 pbc="T T T"
Si      -0.40299831      -2.31704888      -0.45787394       0.00000000
Si      -0.44141013       0.31211640       2.34053264       0.00000000
Si      -1.33990137       1.60713882      -1.22659743       0.00000000
Si       2.20203333       0.49853916      -0.94872724       0.00000000
Si      -0.54613854       1.14215706      -3.44945527       0.00000000
Si       2.61907362       2.69781948      -0.13070754       0.00000000
Si       1.53995886      -3.42367256       0.48107012       0.00000000
Si       1.80691938       0.86454288      -3.28117061       0.00000000
Si      -2.77921409      -0.22473684       2.75626628       0.00000000
Si       0.08452881       2.58299127       2.96116011       0.00000000
