10
Lattice="16.28999089631971 0.0 0.0 0.0 16.28999089631971 0.0 0.0 0.0 34.56954931742767" Properties=species:S:1:pos:R:3:initial_magmoms:R:1 pbc="T T T"
Si      -1.29469662      -1.46771271       1.43059246       0.00000000
Si      -0.55708542       0.03223791      -2.36265717       0.00000000
Si       2.24624439      -0.92219319       0.04148348       0.00000000
Si       0.34876890       2.25039834       1.19220071       0.00000000
Si       2.52710028      -1.27057113      -2.22223558       0.00000000
Si       1.56991617       0.59383566      -3.26547602       0.00000000
Si       2.82126510       2.42364249       0.89818653       0.00000000
Si      -3.04339554      -2.31554205      -0.21972418       0.00000000
Si      -2.29786740       1.59260814      -2.62103012       0.00000000
Si      -2.29838868      -0.14636565       3.19284536       0.00000000
