10
Lattice="16.28999089631971 0.0 0.0 0.0 16.28999089631971 0.0 0.0 0.0 34.56954931742767" Properties=species:S:1:pos:R:3:initial_magmoms:R:1 pbc="T T T"
Si      -1.61443674       0.96705585       1.40387018       0.00000000
Si       1.10221398       1.34150563      -1.60406255       0.00000000
Si       0.96746310       0.71298072       2.29977512       0.00000000
Si      -1.55219265      -1.34902377      -1.62905635       0.00000000
Si       2.25548082       3.01022000      -0.31140267       0.00000000
Si      -2.74023864      -0.82407852       2.51410645       0.00000000
Si       2.42540181      -0.05325201      -3.02169142       0.00000000
Si      -2.96080524       2.58062500      -0.23880658       0.00000000
Si      -0.30071340       2.67898565      -3.01965182       0.00000000
Si      -0.91553058      -2.15454798       3.31480680       0.00000000
