10
Lattice="16.28999089631971 0.0 0.0 0.0 16.28999089631971 0.0 0.0 0.0 34.56954931742767" Properties=species:S:1:pos:R:3:initial_magmoms:R:1 pbc="T T T"
Si      -1.36260963      -1.17918423      -1.56586318       0.00000000
Si       1.12580190       1.79113437      -1.11023627       0.00000000
Si      -0.95174325       0.94358196       1.97890039       0.00000000
Si       1.82470806      -1.33046946       0.80070035       0.00000000
Si      -2.75386360      -2.26489644       0.08597452       0.00000000
Si       0.62398845      -2.82393666       2.13066079       0.00000000
Si       0.97639002       0.76655853       3.58216784       0.00000000
Si       2.74023864       0.82407852      -2.51410645       0.00000000
Si       0.17218530      -2.38343877      -2.98639590       0.00000000
Si       0.04030146       3.81209525      -0.39022129       0.00000000
