10
Lattice="16.28999089631971 0.0 0.0 0.0 16.28999089631971 0.0 0.0 0.0 34.56954931742767" Properties=species:S:1:pos:R:3:initial_magmoms:R:1 pbc="T T T"
Si       0.32755932      -2.25813609       0.49251264       0.00000000
Si       1.01711502       1.43523045      -1.60316375       0.00000000
Si      -2.14029423      -0.53551746      -0.95156195       0.00000000
Si       0.43771230       1.69580529       1.65719598       0.00000000
Si       0.73295226       3.29371161      -0.12998158       0.00000000
Si      -0.91101825       1.61225388      -3.20643120       0.00000000
Si      -1.53433881       1.90492002       2.85461670       0.00000000
Si       0.66471345      -2.15526474      -3.05467079       0.00000000
Si      -1.65022587      -3.09394341       1.53602964       0.00000000
Si       1.26183969      -2.54443284       2.58027260       0.00000000
