10
Lattice="16.28999089631971 0.0 0.0 0.0 16.28999089631971 0.0 0.0 0.0 34.56954931742767" Properties=species:S:1:pos:R:3:initial_magmoms:R:1 pbc="T T T"
Si       0.91114857      -0.73404369       2.02183579       0.00000000
Si       1.48877568       0.25384707      -1.79485200       0.00000000
Si      -1.67431878      -1.14521958      -1.19420575       0.00000000
Si      -1.41086061       1.77443698       0.68592938       0.00000000
Si      -1.93241754       0.80870076      -2.57470690       0.00000000
Si       1.33087671       1.32989931       2.95020156       0.00000000
Si      -1.73586240       2.83160992      -1.37151307       0.00000000
Si       2.29003191      -1.99497114      -2.04555052       0.00000000
Si      -3.27130241       0.57661713       1.59040757       0.00000000
Si      -3.44674734      -1.42506549       0.29767856       0.00000000
