10
Lattice="16.28999089631971 0.0 0.0 0.0 16.28999089631971 0.0 0.0 0.0 34.56954931742767" Properties=species:S:1:pos:R:3:initial_magmoms:R:1 pbc="T T T"
Si      -1.37630952      -1.35765178      -1.33922163       0.00000000
Si       1.35757602      -1.35685179       1.35996683       0.00000000
Si      -1.35780408       1.35871469       1.36048537       0.00000000
Si       1.37495745       1.36560536      -1.36851243       0.00000000
Si      -0.00705357      -2.60751654      -2.73854937       0.00000000
Si       2.71125873       2.71513412       0.00304212       0.00000000
Si      -2.71433754       2.71589975       0.00134821       0.00000000
Si       2.71546155      -2.71569843       0.00017285       0.00000000
Si      -0.00043983      -2.71450926       2.71744465       0.00000000
Si      -2.71704168      -2.71496538       0.00722504       0.00000000
