10
Lattice="16.28999089631971 0.0 0.0 0.0 16.28999089631971 0.0 0.0 0.0 34.56954931742767" Properties=species:S:1:pos:R:3:initial_magmoms:R:1 pbc="T T T"
Si      -1.35764118      -1.35631680       1.35671729       0.00000000
Si       1.35715248      -1.35654975      -1.35758153       0.00000000
Si       1.35780408       1.35679410       1.35685557       0.00000000
Si      -1.35723393       1.35809730      -1.35716670       0.00000000
Si       2.71226871       0.00154755       2.71682240       0.00000000
Si       0.00004887       2.71500543      -2.71426425       0.00000000
Si      -2.71471221      -2.71470237      -0.00034570       0.00000000
Si       2.71485882      -2.71471177       0.00017285       0.00000000
Si       0.00027693      -2.71447505      -2.71519763       0.00000000
Si       2.71529865       0.00125433      -2.71440253       0.00000000
