10
Lattice="16.28999089631971 0.0 0.0 0.0 16.28999089631971 0.0 0.0 0.0 34.56954931742767" Properties=species:S:1:pos:R:3:initial_magmoms:R:1 pbc="T T T"
Si       1.99580193       1.40105403      -0.02537406       0.00000000
Si       0.23051979      -2.15769179       1.11974290       0.00000000
Si       0.03570768      -0.85054488      -2.29334518       0.00000000
Si      -1.54588842       1.11006576       1.57229312       0.00000000
Si       2.05405497       1.69723881       2.25611376       0.00000000
Si      -0.04240287       2.77667937       2.46567448       0.00000000
Si      -0.33148521      -1.69935325       3.31909342       0.00000000
Si      -0.78511284       0.97046046      -3.63250113       0.00000000
Si       1.39613445      -0.14436198       3.63803226       0.00000000
Si      -2.34321876      -0.47721555       3.14085273       0.00000000
