10
Lattice="16.28999089631971 0.0 0.0 0.0 16.28999089631971 0.0 0.0 0.0 34.56954931742767" Properties=species:S:1:pos:R:3:initial_magmoms:R:1 pbc="T T T"
Si       0.56200500      -0.45833854      -2.19935053       0.00000000
Si       1.72761966       1.55499127       0.31893884       0.00000000
Si      -2.01173355       1.22213770      -0.17824070       0.00000000
Si       0.37291068      -1.72090233       1.62027568       0.00000000
Si      -1.20487356      -2.15825625      -2.25013322       0.00000000
Si      -1.21440321       2.80941901      -1.74680030       0.00000000
Si       3.48938316       0.11953602       0.86593312       0.00000000
Si      -0.75378717      -0.78214221       3.47171807       0.00000000
Si       2.66062941      -1.80020205       1.89738534       0.00000000
Si       1.22971581       2.67168706       2.30067393       0.00000000
