10
Lattice="16.28999089631971 0.0 0.0 0.0 16.28999089631971 0.0 0.0 0.0 34.56954931742767" Properties=species:S:1:pos:R:3:initial_magmoms:R:1 pbc="T T T"
Si      -1.35710361       1.35501849      -1.35944829       0.00000000
Si       1.35742941      -1.35760860      -1.36010511       0.00000000
Si       1.34768799       1.34988714       1.37987890       0.00000000
Si      -1.35821133      -1.35661491       1.38136539       0.00000000
Si      -2.71388142       2.71068858       0.00051854       0.00000000
Si       2.71298547      -2.71456560       0.00228159       0.00000000
Si      -2.71581993      -2.71212210       0.00145192       0.00000000
Si       2.71280628       2.71518462       0.00411378       0.00000000
Si       0.00048870       2.71353933      -2.71616558       0.00000000
Si       2.71515204      -0.00114030      -2.71633843       0.00000000
