10
Lattice="16.28999089631971 0.0 0.0 0.0 16.28999089631971 0.0 0.0 0.0 34.56954931742767" Properties=species:S:1:pos:R:3:initial_magmoms:R:1 pbc="T T T"
Si      -2.25463374       0.09130545       0.50035994       0.00000000
Si       0.48863484       2.06819469       1.04420839       0.00000000
Si       0.32698917       0.11665269      -2.35235544       0.00000000
Si       0.48246093      -2.17137555       0.85926120       0.00000000
Si      -2.96447049      -1.92270870      -0.39692779       0.00000000
Si      -0.74479509       1.84964805       3.12578040       0.00000000
Si       2.80958517       2.13517917       1.18155329       0.00000000
Si       2.62625751       0.40161366      -2.63174669       0.00000000
Si      -2.53548963       0.43968339       2.76407900       0.00000000
Si      -3.21181785       1.95571224      -0.54288051       0.00000000
