10
Lattice="16.28999089631971 0.0 0.0 0.0 16.28999089631971 0.0 0.0 0.0 34.56954931742767" Properties=species:S:1:pos:R:3:initial_magmoms:R:1 pbc="T T T"
Si      -1.94494455      -0.73267533       1.41590181       0.00000000
Si       0.57174642       1.93816791       1.56547051       0.00000000
Si       2.09373741      -1.80015903       0.30089353       0.00000000
Si      -1.08799281      -1.89899046      -1.83692317       0.00000000
Si       0.24355179       1.50244299      -2.63129729       0.00000000
Si      -1.54714275       0.09247833      -2.99299868       0.00000000
Si      -0.62962479      -1.97196966       3.04014263       0.00000000
Si       0.79750953      -3.31082847       1.62794809       0.00000000
Si       2.07067077       0.76139460       3.06396452       0.00000000
Si       3.51310140      -0.47267064       1.68277543       0.00000000
