10
Lattice="16.28999089631971 0.0 0.0 0.0 16.28999089631971 0.0 0.0 0.0 34.56954931742767" Properties=species:S:1:pos:R:3:initial_magmoms:R:1 pbc="T T T"
Si       1.36736631       1.34571690      -1.34538539       0.00000000
Si      -1.35325917       1.35472527       1.35543822       0.00000000
Si       1.35866745      -1.35980775       1.35523080       0.00000000
Si      -1.37430585      -1.35029439      -1.36679778       0.00000000
Si       0.02391372       2.65618224      -2.67419121       0.00000000
Si       0.06812478      -2.58435963      -2.74798687       0.00000000
Si      -2.71101438       2.71223613      -0.00784729       0.00000000
Si      -2.71226871      -0.00237834       2.71219008       0.00000000
Si       0.00229689       2.71235016       2.71225922       0.00000000
Si      -2.71187775      -2.71511946      -0.00245444       0.00000000
