10
Lattice="16.28999089631971 0.0 0.0 0.0 16.28999089631971 0.0 0.0 0.0 34.56954931742767" Properties=species:S:1:pos:R:3:initial_magmoms:R:1 pbc="T T T"
Si      -1.35527913       1.35738054      -1.36325094       0.00000000
Si       1.36111095      -1.35852084      -1.36335465       0.00000000
Si      -1.36511829      -1.36529748       1.37576512       0.00000000
Si       1.37337732       1.35930276       1.37680221       0.00000000
Si      -2.71275741       2.70923877      -0.00629166       0.00000000
Si      -2.71280628      -2.71518462      -0.00411378       0.00000000
Si       2.71609686       2.71262709      -0.00397550       0.00000000
Si       2.71568961      -2.71433754      -0.00490888       0.00000000
Si      -2.71231758      -0.00164529      -2.72027936       0.00000000
Si       0.00229689       2.71324611      -2.72052134       0.00000000
