10
Lattice="16.28999089631971 0.0 0.0 0.0 16.28999089631971 0.0 0.0 0.0 34.56954931742767" Properties=species:S:1:pos:R:3:initial_magmoms:R:1 pbc="T T T"
Si       1.35677781       1.33872849       1.36946309       0.00000000
Si      -1.35705474      -1.37567421       1.36680123       0.00000000
Si       1.37787336      -1.43172810      -1.29954268       0.00000000
Si      -1.36573731       1.44691038      -1.36925913       0.00000000
Si       2.71788876       2.69461035      -0.02840236       0.00000000
Si      -0.00110772       2.69757513       2.72925707       0.00000000
Si      -2.73499326       2.69677514       0.03006861       0.00000000
Si       2.71433754      -0.01725111       2.72925707       0.00000000
Si      -2.71827972      -0.01682757       2.73025959       0.00000000
Si      -2.72640843      -2.73610098      -0.01463676       0.00000000
