10
Lattice="16.28999089631971 0.0 0.0 0.0 16.28999089631971 0.0 0.0 0.0 34.56954931742767" Properties=species:S:1:pos:R:3:initial_magmoms:R:1 pbc="T T T"
Si      -1.06605018       0.95766534       1.85887484       0.00000000
Si       0.34901325      -2.24710776       0.67310407       0.00000000
Si       2.30988942       0.54037188       0.17613195       0.00000000
Si      -1.01752227       0.34678152      -2.13477457       0.00000000
Si       3.08804643      -0.93180429      -1.50311941       0.00000000
Si       1.30582269       1.10832340       3.18109171       0.00000000
Si      -0.92874177       2.73838877      -2.22873466       0.00000000
Si       2.77078239      -0.54955944       2.39197216       0.00000000
Si       2.13941457      -3.02081760      -0.66608645       0.00000000
Si      -1.76557536      -3.27932361       0.98509443       0.00000000
