10
Lattice="16.28999089631971 0.0 0.0 0.0 16.28999089631971 0.0 0.0 0.0 34.56954931742767" Properties=species:S:1:pos:R:3:initial_magmoms:R:1 pbc="T T T"
Si      -1.35047541      -1.35684297       1.39791039       0.00000000
Si       1.36132482       1.36260963       1.39583621       0.00000000
Si       1.41948664      -1.32851466      -1.49264138       0.00000000
Si      -1.48991781       1.39080762      -1.48404047       0.00000000
Si      -2.69583393      -2.70878265       0.02253936       0.00000000
Si      -2.70076980       2.70702333       0.05663878       0.00000000
Si       2.71137812      -2.70521514       0.02666005       0.00000000
Si       2.71685156       2.71533123       0.01287371       0.00000000
Si      -2.70946866       0.00149868       2.75725497       0.00000000
Si       0.00574854      -2.71357191       2.75753152       0.00000000
