10
Lattice="16.28999089631971 0.0 0.0 0.0 16.28999089631971 0.0 0.0 0.0 34.56954931742767" Properties=species:S:1:pos:R:3:initial_magmoms:R:1 pbc="T T T"
Si       1.35488817       1.35671265       1.35626789       0.00000000
Si      -1.35773403       1.35716877      -1.35727040       0.00000000
Si       1.35742941      -1.35751086      -1.35747782       0.00000000
Si      -1.35903723      -1.35832536       1.35758153       0.00000000
Si       0.00394218       2.71300176       2.71547419       0.00000000
Si      -0.00032580      -2.71443528      -2.71485193       0.00000000
Si       2.71461447       2.71471221       0.00013828       0.00000000
Si      -0.00053757       2.71511946      -2.71454081       0.00000000
Si       2.71474479      -2.71498914      -0.00010371       0.00000000
Si      -2.71503099      -2.71503801       0.00024199       0.00000000
