10
Lattice="16.28999089631971 0.0 0.0 0.0 16.28999089631971 0.0 0.0 0.0 34.56954931742767" Properties=species:S:1:pos:R:3:initial_magmoms:R:1 pbc="T T T"
Si       0.47876310      -2.24465516      -0.48584072       0.00000000
Si      -2.37446298       0.24786864      -0.21837597       0.00000000
Si       1.61056202       1.34439741      -1.23396075       0.00000000
Si       0.52323480       0.05102028       2.51787453       0.00000000
Si      -2.61273681       2.27247129      -1.38931639       0.00000000
Si      -0.57238173      -3.49580861       1.54325468       0.00000000
Si       3.28509746       2.01956904       0.39167321       0.00000000
Si       2.13748488       0.34479414      -3.31259435       0.00000000
Si       2.71549154      -2.88633455      -0.26539058       0.00000000
Si      -0.29923101      -3.00964985      -2.58929526       0.00000000
