10
Lattice="16.28999089631971 0.0 0.0 0.0 16.28999089631971 0.0 0.0 0.0 34.56954931742767" Properties=species:S:1:pos:R:3:initial_magmoms:R:1 pbc="T T T"
Si      -1.68164928       1.53929749      -0.59998943       0.00000000
Si       1.50704559       1.67259856       0.70317960       0.00000000
Si      -0.92967030      -1.68184543       1.42647868       0.00000000
Si       1.44213319      -1.12438534      -1.61298150       0.00000000
Si      -0.54973863       2.56226062      -2.39867866       0.00000000
Si      -3.14450757       0.19578299      -1.75215859       0.00000000
Si      -0.15167619      -0.91685074       3.52993322       0.00000000
Si       0.58047786      -3.30182077      -1.45226758       0.00000000
Si       3.42393713      -1.32644650      -0.41473111       0.00000000
Si       1.37205524       3.26128081      -1.12413323       0.00000000
