10
Lattice="16.28999089631971 0.0 0.0 0.0 16.28999089631971 0.0 0.0 0.0 34.56954931742767" Properties=species:S:1:pos:R:3:initial_magmoms:R:1 pbc="T T T"
Si       1.35773403      -1.35716877       1.35727040       0.00000000
Si       1.35719646       1.35795069      -1.35727040       0.00000000
Si      -1.35822340      -1.35731538      -1.35689014       0.00000000
Si      -1.35780272       1.35777150       1.35744325       0.00000000
Si       2.71262220      -0.00045612       2.71353829       0.00000000
Si      -0.00051313       2.71329498       2.71422968       0.00000000
Si      -2.71420300      -0.00030951       2.71516306       0.00000000
Si      -2.71483831      -2.71461447       0.00000000       0.00000000
Si       2.71516344      -2.71467963      -0.00020742       0.00000000
Si      -0.00130320      -2.71549413       2.71485193       0.00000000
