10
Lattice="16.28999089631971 0.0 0.0 0.0 16.28999089631971 0.0 0.0 0.0 34.56954931742767" Properties=species:S:1:pos:R:3:initial_magmoms:R:1 pbc="T T T"
Si       0.08882937      -0.46517724      -2.25196541       0.00000000
Si       0.23827383      -2.02460265       1.17094043       0.00000000
Si      -2.15085015       0.84613518       0.46191858       0.00000000
Si       1.57915260       1.74938310       0.27382555       0.00000000
Si      -1.13880132      -1.24752078       2.94881877       0.00000000
Si       1.60252875       2.04232617       2.66092341       0.00000000
Si       2.61273681      -2.27247129       1.38931639       0.00000000
Si      -2.16099882      -0.85234167      -2.94387533       0.00000000
Si       1.03513176       1.36572102      -3.41775497       0.00000000
Si       3.63027537       1.18811115      -0.67344977       0.00000000
