10
Lattice="16.28999089631971 0.0 0.0 0.0 16.28999089631971 0.0 0.0 0.0 34.56954931742767" Properties=species:S:1:pos:R:3:initial_magmoms:R:1 pbc="T T T"
Si       1.34535852       1.35193968       1.37537103       0.00000000
Si      -1.37368683      -1.36243044       1.37716865       0.00000000
Si      -1.30417740       1.48572945      -1.36850206       0.00000000
Si       1.39776345      -1.28467827      -1.49449085       0.00000000
Si       2.69583393       2.70878265      -0.02253936       0.00000000
Si      -2.70998811      -2.71195920       0.00561410       0.00000000
Si       2.70572549      -2.72393235      -0.01140796       0.00000000
Si       2.70158247      -0.00478926       2.73499216       0.00000000
Si      -0.01363473       2.71028133       2.73471561       0.00000000
Si      -0.01234782      -2.71868697       2.73488846       0.00000000
