10
Lattice="16.28999089631971 0.0 0.0 0.0 16.28999089631971 0.0 0.0 0.0 34.56954931742767" Properties=species:S:1:pos:R:3:initial_magmoms:R:1 pbc="T T T"
Si       1.35690813       1.35716877      -1.35720126       0.00000000
Si      -1.35705474      -1.35804843      -1.35689014       0.00000000
Si      -1.35702216       1.35762489       1.35747782       0.00000000
Si       1.35795069      -1.35746199       1.35727040       0.00000000
Si      -2.71474479       0.00115659       2.71371114       0.00000000
Si      -2.71363707       0.00185706      -2.71488650       0.00000000
Si      -2.71402803       2.71459818      -0.00024199       0.00000000
Si      -2.71433754      -2.71495656       0.00020742       0.00000000
Si      -0.00175932       2.71697652      -2.71243206       0.00000000
Si       0.00174303       2.71542897       2.71457538       0.00000000
