10
Lattice="16.28999089631971 0.0 0.0 0.0 16.28999089631971 0.0 0.0 0.0 34.56954931742767" Properties=species:S:1:pos:R:3:initial_magmoms:R:1 pbc="T T T"
Si       0.25559010      -0.34225290       2.30485685       0.00000000
Si       1.24054607      -1.86935895      -0.77228416       0.00000000
Si      -2.33955351      -0.16464303      -0.43944836       0.00000000
Si       0.49798530       2.22817878      -0.74964110       0.00000000
Si      -0.68124780      -2.56837914      -2.04682959       0.00000000
Si      -2.24347509      -0.81272439      -2.66503719       0.00000000
Si      -0.43108227       3.43018530       1.13536834       0.00000000
Si       1.96840608       1.12111038       2.86159975       0.00000000
Si      -1.79553267       0.21901905       3.25213217       0.00000000
Si      -2.31044328       2.24740098       2.03998481       0.00000000
