10
Lattice="16.28999089631971 0.0 0.0 0.0 16.28999089631971 0.0 0.0 0.0 34.56954931742767" Properties=species:S:1:pos:R:3:initial_magmoms:R:1 pbc="T T T"
Si       1.71281598       1.46336328       0.55674290       0.00000000
Si      -2.05112277       0.56127195       0.94727532       0.00000000
Si      -0.25559010       0.34225290      -2.30485685       0.00000000
Si       0.59302346      -2.11618503       0.82880541       0.00000000
Si       1.11994632      -3.11578830      -1.24982818       0.00000000
Si       0.98495597      -1.52710605      -3.07714101       0.00000000
Si       2.26755890      -1.44101340       2.45443937       0.00000000
Si       2.20127489       0.87573411       2.77897848       0.00000000
Si      -2.56603338       2.58965388      -0.26487203       0.00000000
Si       0.86948105       3.62742462       0.54412501       0.00000000
