10
Lattice="16.28999089631971 0.0 0.0 0.0 16.28999089631971 0.0 0.0 0.0 34.56954931742767" Properties=species:S:1:pos:R:3:initial_magmoms:R:1 pbc="T T T"
Si      -1.34345259       1.31046534      -1.32880582       0.00000000
Si       1.35052245       1.36596537       1.33930114       0.00000000
Si      -1.36736631      -1.34571690       1.34538539       0.00000000
Si       1.21085199      -1.31621571      -1.54067925       0.00000000
Si       0.47890971       2.17003977      -2.74728653       0.00000000
Si      -2.54097936      -0.26736777      -2.67126040       0.00000000
Si      -0.65409237      -2.07946737      -3.02757659       0.00000000
Si       2.31844167       0.49907673      -2.95453109       0.00000000
Si      -0.00869886      -2.70552465       2.70061619       0.00000000
Si       2.70786462       0.00961110       2.70040877       0.00000000
