10
Lattice="16.28999089631971 0.0 0.0 0.0 16.28999089631971 0.0 0.0 0.0 34.56954931742767" Properties=species:S:1:pos:R:3:initial_magmoms:R:1 pbc="T T T"
Si      -0.75694385      -1.70728974      -1.57170544       0.00000000
Si       1.77358841       0.80953155      -1.54484488       0.00000000
Si       0.31830334      -0.67647483       2.44403393       0.00000000
Si      -1.98000945       1.80946062       0.21018298       0.00000000
Si      -0.35189006       2.74390389       2.12219125       0.00000000
Si      -1.31558922       0.84587454       3.19823821       0.00000000
Si      -2.39046858      -2.85852033      -0.15265922       0.00000000
Si      -2.21204421      -0.46876104      -3.01858016       0.00000000
Si       2.06522828       2.35020717       2.12105045       0.00000000
Si       0.50239174       2.23912566      -3.02127659       0.00000000
