10
Lattice="16.28999089631971 0.0 0.0 0.0 16.28999089631971 0.0 0.0 0.0 34.56954931742767" Properties=species:S:1:pos:R:3:initial_magmoms:R:1 pbc="T T T"
Si      -1.35457866       1.35581670      -1.35844577       0.00000000
Si       1.35096228       1.34851878       1.37306870       0.00000000
Si       1.35982404      -1.36050822      -1.35789266       0.00000000
Si      -1.35669636      -1.34879571       1.37265386       0.00000000
Si      -0.08216676       2.56837914       2.82782528       0.00000000
Si       0.00148239       2.71282257      -2.71588902       0.00000000
Si      -2.71334385      -0.00198738      -2.71554333       0.00000000
Si      -2.71568961       2.71433754       0.00490888       0.00000000
Si      -2.71551042      -2.71541268       0.00307669       0.00000000
Si       2.71759554       2.71397916       0.00048397       0.00000000
