10
Lattice="16.28999089631971 0.0 0.0 0.0 16.28999089631971 0.0 0.0 0.0 34.56954931742767" Properties=species:S:1:pos:R:3:initial_magmoms:R:1 pbc="T T T"
Si       1.57234338       1.13948550       1.38053572       0.00000000
Si      -1.27119667       1.42959411      -1.47643171       0.00000000
Si       1.42530984      -1.28614437      -1.48742483       0.00000000
Si      -1.77358841      -0.80953155       1.54484488       0.00000000
Si      -2.53053226      -2.51682129      -0.02686055       0.00000000
Si       3.33534492      -0.67163670       1.36214471       0.00000000
Si       2.73976623      -2.58427818      -0.04514786       0.00000000
Si      -2.65265450       2.76861582      -0.05852628       0.00000000
Si      -2.62602624       0.07644897      -2.85236968       0.00000000
Si       0.09228285      -2.63974563      -2.85423643       0.00000000
