10
Lattice="16.28999089631971 0.0 0.0 0.0 16.28999089631971 0.0 0.0 0.0 34.56954931742767" Properties=species:S:1:pos:R:3:initial_magmoms:R:1 pbc="T T T"
Si       1.26210033      -1.35136953       1.55149261       0.00000000
Si      -0.98538210      -1.91541078      -1.14438205       0.00000000
Si       1.42273995       1.24043463      -1.66669366       0.00000000
Si      -1.46772900       1.35135324       1.54523898       0.00000000
Si       2.59356741       2.57481925       0.10949219       0.00000000
Si       2.69340067      -2.66159052      -0.00170774       0.00000000
Si       0.85414986      -3.58637382      -1.35162662       0.00000000
Si       2.60054930      -0.00643455       2.94531688       0.00000000
Si      -2.73887028       2.83962297       0.08779979       0.00000000
Si      -2.80774440      -2.77498521       0.27409865       0.00000000
