10
Lattice="16.28999089631971 0.0 0.0 0.0 16.28999089631971 0.0 0.0 0.0 34.56954931742767" Properties=species:S:1:pos:R:3:initial_magmoms:R:1 pbc="T T T"
Si       1.35343836       1.36161335       1.39544558       0.00000000
Si      -1.36111095      -1.35588186       1.39786545       0.00000000
Si      -1.27114128       1.48826973      -1.45743919       0.00000000
Si       1.46772900      -1.35135324      -1.54523898       0.00000000
Si      -2.71788876      -2.69461035       0.02840236       0.00000000
Si      -2.70161505       2.72542193       0.02918017       0.00000000
Si       2.71409855       2.71344878       0.01215812       0.00000000
Si       2.72982933      -2.70272277       0.00625363       0.00000000
Si      -0.00355122      -2.71186146       2.75765943       0.00000000
Si       2.71240053       0.00345067       2.75769400       0.00000000
