10
Lattice="16.28999089631971 0.0 0.0 0.0 16.28999089631971 0.0 0.0 0.0 34.56954931742767" Properties=species:S:1:pos:R:3:initial_magmoms:R:1 pbc="T T T"
Si      -0.60263226       0.70864758       2.10421507       0.00000000
Si       0.94045169       1.96923294      -0.80052750       0.00000000
Si       2.03085868      -1.26307773      -0.02800135       0.00000000
Si      -2.19115161      -0.84546729      -0.61409382       0.00000000
Si       0.71140615      -2.66025474      -1.52728354       0.00000000
Si      -0.92105289      -1.31057937      -2.75256733       0.00000000
Si       1.61355449       1.56069603       2.96707151       0.00000000
Si       1.98238941       1.42925202      -2.82488687       0.00000000
Si      -2.75138100       1.94707854       1.64568431       0.00000000
Si       3.42211265      -0.17736552      -1.67983905       0.00000000
