10
Lattice="16.28999089631971 0.0 0.0 0.0 16.28999089631971 0.0 0.0 0.0 34.56954931742767" Properties=species:S:1:pos:R:3:initial_magmoms:R:1 pbc="T T T"
Si       1.02958569      -1.73550402      -1.19738615       0.00000000
Si       0.86165533       2.17743543      -0.16071392       0.00000000
Si      -1.84855662       0.32757561      -1.42530331       0.00000000
Si      -0.48746196      -0.42021684       2.28418425       0.00000000
Si       2.23750385      -0.46506321      -2.76864218       0.00000000
Si       2.84345927       1.97537427       1.03753646       0.00000000
Si      -1.51014816       1.61997534       2.87874626       0.00000000
Si      -0.58047786       3.30182077       1.45226758       0.00000000
Si      -1.95879105      -2.29296411       2.23336698       0.00000000
Si      -1.70528607      -1.23154029      -3.21064869       0.00000000
