10
Lattice="16.28999089631971 0.0 0.0 0.0 16.28999089631971 0.0 0.0 0.0 34.56954931742767" Properties=species:S:1:pos:R:3:initial_magmoms:R:1 pbc="T T T"
Si      -1.02268620       2.04019218       0.59456201       0.00000000
Si       0.48746196       0.42021684      -2.28418425       0.00000000
Si      -1.47132909      -1.87274727      -0.05081727       0.00000000
Si       1.81659142       0.16182486       1.62573767       0.00000000
Si      -2.41789212      -1.64589273       2.10462991       0.00000000
Si       3.58901999       0.44167077       0.13385337       0.00000000
Si       1.34911729       2.59765227      -2.44489817       0.00000000
Si      -0.09301590       3.72203761      -0.83191667       0.00000000
Si      -3.37512510       1.73755656       0.65336485       0.00000000
Si      -0.24469209       2.80518687       2.69801655       0.00000000
