10
Lattice="16.28999089631971 0.0 0.0 0.0 16.28999089631971 0.0 0.0 0.0 34.56954931742767" Properties=species:S:1:pos:R:3:initial_magmoms:R:1 pbc="T T T"
Si       0.98538210       1.91541078       1.14438205       0.00000000
Si      -1.82236230      -0.85957443       1.41848070       0.00000000
Si       1.83953196      -1.67096304      -0.20724456       0.00000000
Si      -1.28585115      -1.20402648      -2.03355488       0.00000000
Si       0.37076040       1.52954955      -2.76525436       0.00000000
Si      -0.47890971      -2.17003977       2.74728653       0.00000000
Si       2.24748243       0.56404125       2.69587466       0.00000000
Si       0.53229204      -0.85768479      -3.55430477       0.00000000
Si       0.73194228      -3.48625548       1.20660728       0.00000000
Si      -3.01988907      -2.43740754       0.07602613       0.00000000
