10
Lattice="16.28999089631971 0.0 0.0 0.0 16.28999089631971 0.0 0.0 0.0 34.56954931742767" Properties=species:S:1:pos:R:3:initial_magmoms:R:1 pbc="T T T"
Si      -2.39655222       0.56576799      -0.17865553       0.00000000
Si       0.16153164      -2.38723434      -0.78905040       0.00000000
Si       1.05114483       1.25115345      -2.02909540       0.00000000
Si      -0.37076040      -1.52954955       2.76525436       0.00000000
Si      -1.65661155      -2.73357603       0.73169949       0.00000000
Si       2.03736165       1.62629586       2.24294275       0.00000000
Si       3.28787327       0.60947406      -1.80864526       0.00000000
Si      -3.52103463      -1.46056140       0.11929958       0.00000000
Si       1.09561653       3.54682889       0.97461985       0.00000000
Si       0.57238173       3.49580861      -1.54325468       0.00000000
