10
Lattice="16.28999089631971 0.0 0.0 0.0 16.28999089631971 0.0 0.0 0.0 34.56954931742767" Properties=species:S:1:pos:R:3:initial_magmoms:R:1 pbc="T T T"
Si       0.47957760       2.30884686       0.25664448       0.00000000
Si       1.40732568      -1.58682519       1.07072325       0.00000000
Si      -2.19897800      -0.29701557       0.88847248       0.00000000
Si       0.22836951      -0.25905987      -2.42948014       0.00000000
Si      -3.45866741       0.31633551      -1.00918942       0.00000000
Si      -1.21840892       3.59683200      -0.65969108       0.00000000
Si       3.63897423      -1.24193331       0.36650657       0.00000000
Si       0.88138674      -3.85770006       0.45009578       0.00000000
Si      -2.52744956       2.27107035      -2.08378446       0.00000000
Si       2.49983082       0.06149475      -3.13106954       0.00000000
