10
Lattice="16.28999089631971 0.0 0.0 0.0 16.28999089631971 0.0 0.0 0.0 34.56954931742767" Properties=species:S:1:pos:R:3:initial_magmoms:R:1 pbc="T T T"
Si      -1.31800761       1.38295584       1.38273089       0.00000000
Si       1.41361362      -1.33643160       1.38534435       0.00000000
Si      -1.29093363      -1.49343462      -1.38691523       0.00000000
Si       1.14539877       1.37580453      -1.67557113       0.00000000
Si      -2.60989909       2.75965632      -0.13657054       0.00000000
Si      -2.66583081       0.01570356       2.75256388       0.00000000
Si       2.80254789       2.60511309      -0.25676547       0.00000000
Si       0.05025465      -2.69731612       2.75249474       0.00000000
Si       0.04921209       2.73240315       2.74941805       0.00000000
Si       2.77246026      -2.70989526       0.02287123       0.00000000
