10
Lattice="16.28999089631971 0.0 0.0 0.0 16.28999089631971 0.0 0.0 0.0 34.56954931742767" Properties=species:S:1:pos:R:3:initial_magmoms:R:1 pbc="T T T"
Si       0.06628401      -2.31674751      -0.32453911       0.00000000
Si      -0.48845891       0.58762917      -2.22223558       0.00000000
Si      -1.99794311       0.71236170       1.16969592       0.00000000
Si       1.74869892       0.84782934       1.65031664       0.00000000
Si      -0.87674898      -2.52350019       2.02467050       0.00000000
Si       2.41228836      -2.61757494      -0.53821361       0.00000000
Si      -2.30836535       2.81553102      -0.02088002       0.00000000
Si       1.60648722       0.38327112      -3.24988515       0.00000000
Si      -2.20127489      -0.87573411      -2.77897848       0.00000000
Si      -1.33179384       2.75169051      -2.23485347       0.00000000
