10
Lattice="16.28999089631971 0.0 0.0 0.0 16.28999089631971 0.0 0.0 0.0 34.56954931742767" Properties=species:S:1:pos:R:3:initial_magmoms:R:1 pbc="T T T"
Si      -1.35423000       1.35402480       1.36121133       0.00000000
Si       1.35984359      -1.36091547       1.36131504       0.00000000
Si       1.35552674       1.35272160      -1.38296251       0.00000000
Si      -1.36132482      -1.36260963      -1.39583621       0.00000000
Si      -2.71157217       2.71037907       0.00010371       0.00000000
Si       2.71657253       2.71119357      -0.00096795       0.00000000
Si       0.00292080       2.71164969       2.71844717       0.00000000
Si      -2.71266360      -0.00311139       2.71820518       0.00000000
Si      -2.71180023      -2.71945260       0.00207417       0.00000000
Si       2.71727300      -2.71837746      -0.00248901       0.00000000
