10
Lattice="16.28999089631971 0.0 0.0 0.0 16.28999089631971 0.0 0.0 0.0 34.56954931742767" Properties=species:S:1:pos:R:3:initial_magmoms:R:1 pbc="T T T"
Si      -1.35552674      -1.35272160       1.38296251       0.00000000
Si       1.36104579       1.35847197       1.38199456       0.00000000
Si       1.43405757      -1.28360313      -1.41758393       0.00000000
Si      -1.25992887       1.41555213      -1.56084714       0.00000000
Si       2.24764533       0.55473966      -2.64129688       0.00000000
Si      -2.69122922       2.72577312      -0.00764679       0.00000000
Si      -2.71685156      -2.71533123      -0.01287371       0.00000000
Si       2.71477737       2.73230541       0.02538443       0.00000000
Si      -2.70975674       0.00130320       2.74417384       0.00000000
Si       0.00431685      -2.71363707       2.74427755       0.00000000
