10
Lattice="16.28999089631971 0.0 0.0 0.0 16.28999089631971 0.0 0.0 0.0 34.56954931742767" Properties=species:S:1:pos:R:3:initial_magmoms:R:1 pbc="T T T"
Si       1.35728958       1.35552348       1.35678643       0.00000000
Si      -1.35640029      -1.35808101       1.35771981       0.00000000
Si       1.35780272      -1.35777150      -1.35744325       0.00000000
Si      -1.35750801       1.35798327      -1.35782352       0.00000000
Si      -2.71459533      -2.71464705      -0.00013828       0.00000000
Si      -0.00042069      -2.71508688      -2.71433339       0.00000000
Si       2.71499918       0.00017919      -2.71471366       0.00000000
Si       0.00092559       2.71511946      -2.71481736       0.00000000
Si      -2.71474194       2.71524978      -0.00027656       0.00000000
Si      -2.71563789      -0.00001629      -2.71460995       0.00000000
