10
Lattice="16.28999089631971 0.0 0.0 0.0 16.28999089631971 0.0 0.0 0.0 34.56954931742767" Properties=species:S:1:pos:R:3:initial_magmoms:R:1 pbc="T T T"
Si      -1.35728958      -1.35552348      -1.35678643       0.00000000
Si       1.35818201       1.35961227      -1.35675186       0.00000000
Si      -1.35591837       1.36088289       1.35931001       0.00000000
Si       1.36218935      -1.35746199       1.35851491       0.00000000
Si       2.71313534      -2.71375110      -0.00069139       0.00000000
Si      -2.71368987      -2.71360449       0.00093338       0.00000000
Si       0.00051313      -2.71329498      -2.71422968       0.00000000
Si      -2.71479759       0.00245979      -2.71460995       0.00000000
Si       2.71548110       0.00252495      -2.71419511       0.00000000
Si       0.00078681       2.71722087      -2.71436796       0.00000000
