10
Lattice="16.28999089631971 0.0 0.0 0.0 16.28999089631971 0.0 0.0 0.0 34.56954931742767" Properties=species:S:1:pos:R:3:initial_magmoms:R:1 pbc="T T T"
Si      -2.03085868       1.26307773       0.02800135       0.00000000
Si       1.39125397       1.08571221      -1.65183770       0.00000000
Si      -1.31945253      -1.39717701      -1.49928219       0.00000000
Si       1.02402850      -0.40376394       2.29165127       0.00000000
Si      -1.80343399      -2.59033806       0.56835828       0.00000000
Si       3.04436317      -1.58008113      -0.11252395       0.00000000
Si      -1.09040699       3.23231067      -0.77252615       0.00000000
Si      -0.40020458      -2.33145738       2.66925467       0.00000000
Si       2.75386360       2.26489644      -0.08597452       0.00000000
Si      -0.04846927       2.69232975      -2.79688552       0.00000000
