10
Lattice="16.28999089631971 0.0 0.0 0.0 16.28999089631971 0.0 0.0 0.0 34.56954931742767" Properties=species:S:1:pos:R:3:initial_magmoms:R:1 pbc="T T T"
Si      -0.75365685      -0.76494582      -2.10303971       0.00000000
Si      -0.37967103       2.27999727       0.59604850       0.00000000
Si      -0.72780462      -1.15735563       1.96095878       0.00000000
Si       2.15840871      -0.21543525      -1.05879675       0.00000000
Si       1.22412834       0.07086150      -3.14655671       0.00000000
Si      -2.15209959       2.00015136       2.08793281       0.00000000
Si       1.01297736      -2.71772586       2.21933174       0.00000000
Si       3.58467966       1.43024571      -0.25529626       0.00000000
Si      -1.28751273       0.44051418       3.64180035       0.00000000
Si      -2.45164337       0.52303932      -3.01937526       0.00000000
