10
Lattice="16.28999089631971 0.0 0.0 0.0 16.28999089631971 0.0 0.0 0.0 34.69518985606464" Properties=species:S:1:pos:R:3:initial_magmoms:R:1 pbc="T T T"
Si      -2.18039044       0.61664166       0.26888787       0.00000000
Si       0.88184286      -1.04886423       1.92207990       0.00000000
Si       0.05507649      -1.95576111      -1.36376459       0.00000000
Si       0.85169007       2.11901949      -0.75888831       0.00000000
Si       1.43057151      -2.86166430       0.47476924       0.00000000
Si      -2.64598796       1.48248774      -1.86792068       0.00000000
Si      -2.10083170       2.31430401       1.94869112       0.00000000
Si       0.10692756      -0.98802108      -3.59015617       0.00000000
Si      -3.41626454      -1.25600787       1.01781866       0.00000000
Si      -1.02144816       3.23539015      -1.69156493       0.00000000
