10
Lattice="16.28999089631971 0.0 0.0 0.0 16.28999089631971 0.0 0.0 0.0 34.69518985606464" Properties=species:S:1:pos:R:3:initial_magmoms:R:1 pbc="T T T"
Si       1.35615879       1.35586557       1.35713780       0.00000000
Si      -1.35772263       1.35752715      -1.35751945       0.00000000
Si       1.35821133      -1.35828138      -1.35769293       0.00000000
Si      -1.36071999      -1.36122498       1.35703372       0.00000000
Si      -0.00043983      -2.71077516       2.71496951       0.00000000
Si       2.71406061      -0.00257382      -2.71399805       0.00000000
Si      -2.71322982       2.71497285      -0.00045104       0.00000000
Si      -0.00136836       2.71353933      -2.71562872       0.00000000
Si       2.71539639       2.71453302       0.00020817       0.00000000
Si       2.71479366      -2.71516776      -0.00034695       0.00000000
