10
Lattice="16.28999089631971 0.0 0.0 0.0 16.28999089631971 0.0 0.0 0.0 34.69518985606464" Properties=species:S:1:pos:R:3:initial_magmoms:R:1 pbc="T T T"
Si      -2.11965480       0.69552924       0.82883385       0.00000000
Si      -0.64962891      -1.34621767      -1.87399234       0.00000000
Si       0.83119725       2.14765242      -0.78348722       0.00000000
Si       1.33012737      -1.03357999       1.77299458       0.00000000
Si      -2.91672450       1.54731705      -1.22939004       0.00000000
Si      -1.21376790       3.16722723      -1.49116540       0.00000000
Si      -2.52276714      -0.22984701      -2.80666895       0.00000000
Si       1.34320824       3.42210057       1.20551974       0.00000000
Si      -3.60215068      -1.15093315       0.83358710       0.00000000
Si      -1.50131898      -3.46523716      -1.11510403       0.00000000
