10
Lattice="16.28999089631971 0.0 0.0 0.0 16.28999089631971 0.0 0.0 0.0 34.69518985606464" Properties=species:S:1:pos:R:3:initial_magmoms:R:1 pbc="T T T"
Si      -1.17866295       1.45560924       1.48229730       0.00000000
Si       1.71444105       0.93923253      -1.40083438       0.00000000
Si       1.50946398      -1.25918442       1.45291046       0.00000000
Si      -2.01139146      -0.71021142      -1.44694431       0.00000000
Si      -2.69130348      -2.55616164       0.03994459       0.00000000
Si      -1.49941305       1.96973793      -2.76688885       0.00000000
Si       0.60046569       1.17781587      -3.52560369       0.00000000
Si      -2.72719035       2.60530857       0.18490812       0.00000000
Si      -2.54839131       0.10759545       2.83886611       0.00000000
Si       2.74654287       2.67296094      -0.03003217       0.00000000
