10
Lattice="16.28999089631971 0.0 0.0 0.0 16.28999089631971 0.0 0.0 0.0 34.69518985606464" Properties=species:S:1:pos:R:3:initial_magmoms:R:1 pbc="T T T"
Si       0.59240214      -2.15907401       0.54613729       0.00000000
Si       1.32450732       1.76016056       0.74615517       0.00000000
Si      -1.76832837      -0.02058567       1.53106489       0.00000000
Si      -0.93361248       0.64568184      -2.11807313       0.00000000
Si      -1.53318222       2.77893716      -1.27019161       0.00000000
Si      -2.94846068       1.69757438       0.41495470       0.00000000
Si      -1.44984258      -3.16740872      -0.12583952       0.00000000
Si       3.37225806       1.31502002      -0.35958115       0.00000000
Si       0.47646621       3.64432712      -0.38598420       0.00000000
Si       2.17328148      -2.97776054      -0.99949959       0.00000000
