10
Lattice="16.28999089631971 0.0 0.0 0.0 16.28999089631971 0.0 0.0 0.0 34.69518985606464" Properties=species:S:1:pos:R:3:initial_magmoms:R:1 pbc="T T T"
Si       1.34403903       1.35104373      -1.35641267       0.00000000
Si      -1.36115982       1.35162745       1.35592347       0.00000000
Si       1.35402480      -1.35992178       1.35665207       0.00000000
Si      -1.37889963      -1.36404315      -1.37591138       0.00000000
Si       2.46651777      -0.18673227      -2.71480298       0.00000000
Si      -0.00153126       2.71157054       2.71344292       0.00000000
Si       2.71306692      -0.00247608       2.71351232       0.00000000
Si       2.71290402       2.71477641      -0.00052043       0.00000000
Si      -2.71603170      -2.71373481      -0.00038165       0.00000000
Si      -2.71705797      -0.00286704       2.71330414       0.00000000
