10
Lattice="16.28999089631971 0.0 0.0 0.0 16.28999089631971 0.0 0.0 0.0 34.69518985606464" Properties=species:S:1:pos:R:3:initial_magmoms:R:1 pbc="T T T"
Si      -1.35153243      -1.34161182      -1.37722633       0.00000000
Si       1.36489023       1.37295583      -1.37816310       0.00000000
Si       1.00307304      -1.74514770       1.29579667       0.00000000
Si      -1.32729291       1.36280511       1.52450749       0.00000000
Si       2.12511195      -0.45372537       2.95877275       0.00000000
Si      -2.69702942       2.69347887      -0.01561284       0.00000000
Si       2.71342530       2.70503662      -0.01446790       0.00000000
Si      -2.71377553      -2.71810053      -0.00249806       0.00000000
Si       0.00702099      -2.70417258      -2.73502334       0.00000000
Si      -2.71124407       0.00824274      -2.73696628       0.00000000
