10
Lattice="16.28999089631971 0.0 0.0 0.0 16.28999089631971 0.0 0.0 0.0 34.69518985606464" Properties=species:S:1:pos:R:3:initial_magmoms:R:1 pbc="T T T"
Si      -1.35891180      -1.34311050      -1.36695655       0.00000000
Si       1.35169533       1.37536470      -1.36719942       0.00000000
Si      -1.72724499       0.97394652       1.30644810       0.00000000
Si       1.23189867      -1.51182603       1.39766181       0.00000000
Si      -0.78548751      -2.26307196       2.66826976       0.00000000
Si      -0.60520608       2.26536885       2.96942418       0.00000000
Si       2.69843850       2.70575271       0.02359274       0.00000000
Si       2.70257616       0.01257588      -2.72510051       0.00000000
Si       2.70568755      -2.72324817      -0.00839624       0.00000000
Si      -0.00703728      -2.70291825      -2.72874351       0.00000000
