10
Lattice="16.28999089631971 0.0 0.0 0.0 16.28999089631971 0.0 0.0 0.0 34.69518985606464" Properties=species:S:1:pos:R:3:initial_magmoms:R:1 pbc="T T T"
Si      -0.98588709       1.68054223      -1.36619325       0.00000000
Si       1.09074582       1.70311040       1.30242346       0.00000000
Si       1.72944414      -1.03783590      -1.33878404       0.00000000
Si      -1.57420044      -1.47821976       1.60704740       0.00000000
Si       1.81718208      -0.06263505       2.71063261       0.00000000
Si      -2.33442216       0.34846144      -2.72988845       0.00000000
Si       0.38270097      -2.36822391      -2.72957620       0.00000000
Si      -2.25528534       3.09020390       0.05547764       0.00000000
Si      -2.69623935      -2.76964209      -0.05592868       0.00000000
Si       2.94326091      -2.54940129       0.26170596       0.00000000
