10
Lattice="16.28999089631971 0.0 0.0 0.0 16.28999089631971 0.0 0.0 0.0 34.69518985606464" Properties=species:S:1:pos:R:3:initial_magmoms:R:1 pbc="T T T"
Si      -0.59240214       2.15907401      -0.54613729       0.00000000
Si       1.58087934      -0.81868653      -1.54563688       0.00000000
Si      -2.04224472      -1.00833471      -0.67197681       0.00000000
Si       0.55716687      -0.51025167       2.37332579       0.00000000
Si      -2.36073051       2.13848834       0.98492760       0.00000000
Si       2.54676231      -1.56590883       1.69815702       0.00000000
Si       1.02376134      -3.09827655      -1.29475582       0.00000000
Si       3.47711679      -0.56488833      -0.21202242       0.00000000
Si      -3.47988772      -0.00506619       0.96202876       0.00000000
Si      -1.37134107      -3.26774142      -1.01750640       0.00000000
