10
Lattice="16.28999089631971 0.0 0.0 0.0 16.28999089631971 0.0 0.0 0.0 34.69518985606464" Properties=species:S:1:pos:R:3:initial_magmoms:R:1 pbc="T T T"
Si       1.70295660       1.61991018      -0.26177535       0.00000000
Si       0.79706970      -0.85178781       2.05822390       0.00000000
Si      -2.13979643       1.02804561       0.11591669       0.00000000
Si       0.39395736      -1.77716407      -1.57727891       0.00000000
Si      -2.98757690      -0.12504204      -1.69989178       0.00000000
Si      -0.68542618      -2.69825021       2.06297714       0.00000000
Si       2.91672450      -1.54731705       1.22939004       0.00000000
Si      -1.27223108       0.66889998      -3.26582535       0.00000000
Si      -1.72891260       3.17764143      -0.85783905       0.00000000
Si       0.40307976       0.95508270       3.57131667       0.00000000
