10
Lattice="16.28999089631971 0.0 0.0 0.0 16.28999089631971 0.0 0.0 0.0 34.69518985606464" Properties=species:S:1:pos:R:3:initial_magmoms:R:1 pbc="T T T"
Si       1.21371903      -1.59363671       1.20305638       0.00000000
Si       0.09821241      -1.21350956      -2.00569535       0.00000000
Si       1.00162323       2.03508201      -0.68481404       0.00000000
Si      -2.25030060       0.11736782       0.89829366       0.00000000
Si      -1.17234243      -2.92928639      -0.62794859       0.00000000
Si       0.61916661       2.97172443       1.45584568       0.00000000
Si       0.94685625      -0.56762994       3.26749072       0.00000000
Si      -0.62822385       0.55223589      -3.41390450       0.00000000
Si       1.92956679       1.51846095       2.84653375       0.00000000
Si      -3.11199273      -2.07026582       0.47341613       0.00000000
