10
Lattice="16.28999089631971 0.0 0.0 0.0 16.28999089631971 0.0 0.0 0.0 34.69518985606464" Properties=species:S:1:pos:R:3:initial_magmoms:R:1 pbc="T T T"
Si       1.24483293      -0.01215071      -2.00260748       0.00000000
Si       0.06854832       2.42555819       0.31468555       0.00000000
Si      -2.17978119      -1.12285082      -0.09704250       0.00000000
Si       0.35759808       1.49852687       2.56689036       0.00000000
Si       2.02729050      -0.48500054       2.66588555       0.00000000
Si      -2.49214194      -1.16510708       2.36690717       0.00000000
Si       3.49179408      -0.51602696      -1.20156449       0.00000000
Si       3.13201314      -1.90322327       0.83764644       0.00000000
Si      -3.50990856      -0.08927083      -1.87003708       0.00000000
Si      -2.16670032       3.33282974      -0.66451734       0.00000000
