10
Lattice="16.28999089631971 0.0 0.0 0.0 16.28999089631971 0.0 0.0 0.0 34.69518985606464" Properties=species:S:1:pos:R:3:initial_magmoms:R:1 pbc="T T T"
Si      -1.88393850       0.83147418      -1.26523020       0.00000000
Si       0.82246581      -1.88291223      -1.28493707       0.00000000
Si       1.67700663       1.75917339       0.07757849       0.00000000
Si       0.25542720      -1.16831880       2.14916004       0.00000000
Si      -0.54177282       2.18413062      -2.65165076       0.00000000
Si       2.18958777      -0.54340182      -2.64863227       0.00000000
Si       2.96025138      -1.95305697       1.37739981       0.00000000
Si       0.82189566       3.51214029      -1.28545750       0.00000000
Si       3.52004094       0.81974538      -1.26543837       0.00000000
Si      -1.54551375      -2.86176204       2.08833934       0.00000000
