10
Lattice="16.28999089631971 0.0 0.0 0.0 16.28999089631971 0.0 0.0 0.0 34.69518985606464" Properties=species:S:1:pos:R:3:initial_magmoms:R:1 pbc="T T T"
Si      -1.36366848      -1.32800967      -1.36619325       0.00000000
Si       1.36370106       1.38329793      -1.35720720       0.00000000
Si      -1.47378888       1.21142214       1.40605805       0.00000000
Si       0.85511097      -1.75296690       1.36303599       0.00000000
Si       1.43531190       0.06208119       2.75736706       0.00000000
Si      -0.14820642       2.21895864       3.07805488       0.00000000
Si      -2.70583416      -2.68066611       0.02022731       0.00000000
Si       2.69814528      -2.69239491       0.02001914       0.00000000
Si       0.00004887      -2.69402391      -2.71660019       0.00000000
Si      -0.82189566      -3.51214029       1.28545750       0.00000000
