10
Lattice="16.28999089631971 0.0 0.0 0.0 16.28999089631971 0.0 0.0 0.0 34.69518985606464" Properties=species:S:1:pos:R:3:initial_magmoms:R:1 pbc="T T T"
Si      -1.34241003      -1.35570267       1.36506219       0.00000000
Si       1.36707309       1.36417347       1.36478463       0.00000000
Si       1.38370518      -1.29303504      -1.41776074       0.00000000
Si      -1.59242895       1.17561672      -1.34450181       0.00000000
Si       2.72663649      -2.68773597       0.00384076       0.00000000
Si      -2.71490769       2.71339272       0.01388849       0.00000000
Si      -2.70492192       0.00242721       2.72695324       0.00000000
Si       2.72311785       2.70923877      -0.01874582       0.00000000
Si      -2.71352304      -2.72681568      -0.01880827       0.00000000
Si       0.01019754      -2.71446786       2.72657159       0.00000000
