10
Lattice="16.28999089631971 0.0 0.0 0.0 16.28999089631971 0.0 0.0 0.0 34.69518985606464" Properties=species:S:1:pos:R:3:initial_magmoms:R:1 pbc="T T T"
Si       1.35633798       1.35685563      -1.35613164       0.00000000
Si      -1.35801585       1.35716023       1.35727659       0.00000000
Si      -1.35904212      -1.35744570      -1.35686024       0.00000000
Si       1.35795069      -1.35811359       1.35779701       0.00000000
Si      -2.71306692       0.00247608      -2.71351232       0.00000000
Si       2.71248048      -0.00259011       2.71469195       0.00000000
Si      -0.00035838       2.71306596       2.71424091       0.00000000
Si      -2.71459818       2.71404662      -0.00006939       0.00000000
Si       2.71448415       2.71539054       0.00000000       0.00000000
Si       2.71505430      -2.71505430      -0.00006939       0.00000000
