10
Lattice="16.28999089631971 0.0 0.0 0.0 16.28999089631971 0.0 0.0 0.0 34.69518985606464" Properties=species:S:1:pos:R:3:initial_magmoms:R:1 pbc="T T T"
Si      -1.35322659      -1.35519768      -1.35838683       0.00000000
Si      -1.35088083       1.36278882       1.35790110       0.00000000
Si       1.36681245      -1.35252612       1.35949708       0.00000000
Si       1.36319607       1.35980775      -1.35720720       0.00000000
Si      -2.70985779       0.00249237      -2.71500421       0.00000000
Si      -2.70961344      -2.71549413      -0.00364300       0.00000000
Si      -2.71042794       2.71718829      -0.00034695       0.00000000
Si      -2.70257616      -0.01257588       2.72510051       0.00000000
Si       0.00519651      -2.71269225      -2.71514299       0.00000000
Si       2.71849149      -2.71283886       0.00201232       0.00000000
