10
Lattice="16.28999089631971 0.0 0.0 0.0 16.28999089631971 0.0 0.0 0.0 34.69518985606464" Properties=species:S:1:pos:R:3:initial_magmoms:R:1 pbc="T T T"
Si       0.98588709       1.72753821       1.39852919       0.00000000
Si       1.50288282      -1.19412216      -1.59382852       0.00000000
Si      -1.21381677       1.51156539      -1.60049000       0.00000000
Si      -1.35477414      -1.69847685       1.44557589       0.00000000
Si      -1.12607883       2.48676624       2.44892665       0.00000000
Si       2.56725513       2.79692784      -0.21871860       0.00000000
Si      -2.68035660      -2.70601335      -0.22642094       0.00000000
Si      -2.94326091       2.54940129      -0.26170596       0.00000000
Si       0.15713334      -2.53413756      -2.98968618       0.00000000
Si      -2.56055994       0.18117738      -2.99128216       0.00000000
