10
Lattice="16.28999089631971 0.0 0.0 0.0 16.28999089631971 0.0 0.0 0.0 34.69518985606464" Properties=species:S:1:pos:R:3:initial_magmoms:R:1 pbc="T T T"
Si       2.29045545      -0.09699066      -0.35264211       0.00000000
Si      -0.26686278       1.02600677       2.06443434       0.00000000
Si      -1.21371903       1.59363671      -1.20305638       0.00000000
Si      -0.71273637      -2.24081982      -0.39878674       0.00000000
Si      -2.38606146      -1.33564968      -1.83100497       0.00000000
Si      -1.11550662       0.38012715      -3.20875173       0.00000000
Si      -1.09898856      -2.84798070       1.85615900       0.00000000
Si       0.71584776       3.11209766       1.64347737       0.00000000
Si       2.88406305      -1.60146990       1.58616088       0.00000000
Si       2.67946065      -0.76357746      -2.60057941       0.00000000
