10
Lattice="16.28999089631971 0.0 0.0 0.0 16.28999089631971 0.0 0.0 0.0 34.69518985606464" Properties=species:S:1:pos:R:3:initial_magmoms:R:1 pbc="T T T"
Si       1.35949824      -1.35171977      -1.35776232       0.00000000
Si      -1.35746199      -1.35517813       1.35786640       0.00000000
Si      -1.35759231       1.35826020      -1.35838683       0.00000000
Si       1.35808101       1.35870003       1.35748476       0.00000000
Si       2.71286721      -2.71447140      -0.00003470       0.00000000
Si      -2.71383255       0.00224802       2.71493482       0.00000000
Si       0.00066789      -2.71377903       2.71517769       0.00000000
Si      -2.71560816      -2.71371305       0.00173476       0.00000000
Si       0.00039096       2.71529865       2.71469195       0.00000000
Si       2.71495163       0.00184077       2.71528177       0.00000000
