10
Lattice="16.28999089631971 0.0 0.0 0.0 16.28999089631971 0.0 0.0 0.0 34.69518985606464" Properties=species:S:1:pos:R:3:initial_magmoms:R:1 pbc="T T T"
Si       1.08165600      -1.45473188       1.42305870       0.00000000
Si      -1.33167492      -1.35312556      -1.34860278       0.00000000
Si       1.38318390       1.36051311      -1.34960894       0.00000000
Si      -1.63152495       1.07941287       1.33233073       0.00000000
Si       2.36550348       0.09082001       2.72628015       0.00000000
Si      -0.55381113       2.65569843       2.67215563       0.00000000
Si      -2.69039124      -0.00228386      -2.70816925       0.00000000
Si      -2.69159670       2.72584317       0.00981874       0.00000000
Si       0.02264310       2.71421211      -2.71042444       0.00000000
Si       0.02244762      -2.71793993      -2.70771822       0.00000000
