10
Lattice="16.28999089631971 0.0 0.0 0.0 16.28999089631971 0.0 0.0 0.0 34.69518985606464" Properties=species:S:1:pos:R:3:initial_magmoms:R:1 pbc="T T T"
Si      -1.53557685       0.93815739       1.48280385       0.00000000
Si       1.33027178       1.37425698      -1.36615856       0.00000000
Si      -1.37256282      -1.35296595      -1.36237678       0.00000000
Si       1.83378878      -0.91763199       1.38267348       0.00000000
Si      -0.13735728       2.41357527       2.62569874       0.00000000
Si      -1.79633088      -0.85432905       3.08860222       0.00000000
Si       2.68916853       2.70848943       0.01006161       0.00000000
Si       2.70300689      -2.70177795       0.02272536       0.00000000
Si       2.69472016       0.00562005      -2.72107587       0.00000000
Si      -0.02028105      -2.70896184      -2.72360862       0.00000000
