10
Lattice="16.28999089631971 0.0 0.0 0.0 16.28999089631971 0.0 0.0 0.0 34.69518985606464" Properties=species:S:1:pos:R:3:initial_magmoms:R:1 pbc="T T T"
Si      -0.74106468       2.07348894       0.80080012       0.00000000
Si      -1.18301238      -0.56488833      -1.97512887       0.00000000
Si       0.35227125      -2.04967296       1.22991047       0.00000000
Si       2.12115348       0.92642859      -0.70590873       0.00000000
Si       2.84317515      -1.22359077      -1.28184920       0.00000000
Si       1.53464832      -3.03125949      -0.49392100       0.00000000
Si       1.00015713       2.83750623       2.22264449       0.00000000
Si      -0.97288767       3.45409902      -1.16988776       0.00000000
Si       0.19823301       0.39858372      -3.74829693       0.00000000
Si       3.03963255       1.77785802       1.41032556       0.00000000
