10
Lattice="16.28999089631971 0.0 0.0 0.0 16.28999089631971 0.0 0.0 0.0 34.69518985606464" Properties=species:S:1:pos:R:3:initial_magmoms:R:1 pbc="T T T"
Si       0.17974386      -1.85992704       1.41323996       0.00000000
Si      -0.57186045       1.68326199       1.54862066       0.00000000
Si       2.23901163       0.03764619      -0.76464772       0.00000000
Si      -1.49222916       0.40177656      -1.81948616       0.00000000
Si      -0.35302059       3.45240486      -0.00346952       0.00000000
Si      -2.36829233       0.52753536       2.60304277       0.00000000
Si       1.92046068      -1.09683828       2.83761708       0.00000000
Si      -1.24574517       2.75374305      -2.08507799       0.00000000
Si      -1.83947332      -1.80911853       2.69193189       0.00000000
Si       3.58617834      -0.51298839       1.22338777       0.00000000
