10
Lattice="16.28999089631971 0.0 0.0 0.0 16.28999089631971 0.0 0.0 0.0 34.69518985606464" Properties=species:S:1:pos:R:3:initial_magmoms:R:1 pbc="T T T"
Si       1.35459072       1.35648824      -1.35762354       0.00000000
Si       1.35653672      -1.35731538       1.35696433       0.00000000
Si      -1.35760860       1.35718061       1.35758884       0.00000000
Si      -1.35795069      -1.35987291      -1.35762354       0.00000000
Si       2.71038463      -0.00276930       2.71406744       0.00000000
Si       0.00089595      -2.71423980      -2.71264493       0.00000000
Si      -0.00190593       2.71236712       2.71486543       0.00000000
Si      -0.00055386      -2.71756296       2.71212451       0.00000000
Si       2.71467216      -2.71513575       0.00010409       0.00000000
Si      -2.71516833      -2.71466334       0.00020817       0.00000000
