10
Lattice="16.28999089631971 0.0 0.0 0.0 16.28999089631971 0.0 0.0 0.0 34.69518985606464" Properties=species:S:1:pos:R:3:initial_magmoms:R:1 pbc="T T T"
Si       1.38930798      -1.30230405      -1.47929964       0.00000000
Si      -1.43721783      -1.59721821       1.13633749       0.00000000
Si       1.21749246       1.32504489       1.63615668       0.00000000
Si      -1.33296183       1.42601031      -1.46937681       0.00000000
Si      -0.88790274       2.40122745       2.43320972       0.00000000
Si       0.03041123      -2.63653650      -2.85551981       0.00000000
Si      -2.67227676       0.06770124      -2.85066248       0.00000000
Si       2.77579061       2.77860159       0.04770591       0.00000000
Si       2.36924108      -3.12743565      -0.21122443       0.00000000
Si       2.75155109       0.07418466      -2.85402791       0.00000000
