10
Lattice="16.28999089631971 0.0 0.0 0.0 16.28999089631971 0.0 0.0 0.0 34.69518985606464" Properties=species:S:1:pos:R:3:initial_magmoms:R:1 pbc="T T T"
Si      -1.84595089      -0.83821824      -1.17131026       0.00000000
Si       2.01921718      -0.05080851      -1.27869194       0.00000000
Si      -0.52881901       2.33665389      -0.08888913       0.00000000
Si      -0.10747979      -1.17703395       2.09732540       0.00000000
Si      -2.10004231      -2.95508745      -0.24102762       0.00000000
Si       2.04295171      -0.83992869       2.93542287       0.00000000
Si       1.83947332       1.80911853      -2.69193189       0.00000000
Si      -2.29917127       2.47251249      -1.63962620       0.00000000
Si      -3.60769810       0.66484377      -0.85169800       0.00000000
Si       3.75993400       0.71228025       0.14568518       0.00000000
