10
Lattice="16.28999089631971 0.0 0.0 0.0 16.28999089631971 0.0 0.0 0.0 34.69518985606464" Properties=species:S:1:pos:R:3:initial_magmoms:R:1 pbc="T T T"
Si      -1.29603075      -0.23987025       1.92190642       0.00000000
Si       1.88422520      -1.28809917       0.66125599       0.00000000
Si      -1.15075443      -1.37852496      -1.55899453       0.00000000
Si      -0.74920642       3.08833965       0.05884307       0.00000000
Si       2.27311637       0.98080461      -2.09139252       0.00000000
Si      -3.31853105      -0.10521711       0.60945605       0.00000000
Si       0.53256245       2.82567969      -1.95833639       0.00000000
Si       3.47232101       0.25216920      -0.09163005       0.00000000
Si      -2.95081688       2.21679207       0.36901825       0.00000000
Si       2.82249662       2.05517898       1.26588940       0.00000000
