10
Lattice="16.28999089631971 0.0 0.0 0.0 16.28999089631971 0.0 0.0 0.0 34.69518985606464" Properties=species:S:1:pos:R:3:initial_magmoms:R:1 pbc="T T T"
Si      -1.49579571       1.20415517       1.31966698       0.00000000
Si      -1.36512139      -1.32424892      -1.36206452       0.00000000
Si       1.35070979       1.38958424      -1.35911543       0.00000000
Si       1.36973650      -1.33067376       1.54012034       0.00000000
Si       0.15972997       2.19447314       2.75393223       0.00000000
Si       2.25073228       0.58026446       2.75348120       0.00000000
Si       2.69702942      -2.69347887       0.01561284       0.00000000
Si      -0.01421465      -2.68523613      -2.72135343       0.00000000
Si       2.70163949       0.02902715      -2.72048605       0.00000000
Si      -2.73901593      -2.68326504       0.02303762       0.00000000
