10
Lattice="16.28999089631971 0.0 0.0 0.0 16.28999089631971 0.0 0.0 0.0 34.69518985606464" Properties=species:S:1:pos:R:3:initial_magmoms:R:1 pbc="T T T"
Si       1.35384791       1.35454608       1.35710311       0.00000000
Si      -1.35653672       1.35731538      -1.35696433       0.00000000
Si      -1.35709058      -1.36024758       1.35516018       0.00000000
Si       1.35813544      -1.35782037      -1.35686024       0.00000000
Si      -0.00758030      -2.70602964       2.71535116       0.00000000
Si       2.71382019      -0.00428427      -2.71378988       0.00000000
Si      -2.71324937      -2.71437012       0.00062451       0.00000000
Si      -0.00194600       2.71380362      -2.71458787       0.00000000
Si      -2.71414532       2.71449599       0.00062451       0.00000000
Si      -2.71448741      -0.00255753      -2.71458787       0.00000000
