10
Lattice="16.28999089631971 0.0 0.0 0.0 16.28999089631971 0.0 0.0 0.0 34.69518985606464" Properties=species:S:1:pos:R:3:initial_magmoms:R:1 pbc="T T T"
Si      -1.35971164       1.34985456      -1.35973995       0.00000000
Si       1.35153243       1.34161182       1.37722633       0.00000000
Si       1.35855342      -1.36256076      -1.35779701       0.00000000
Si      -1.36224310      -1.37648871       1.37472828       0.00000000
Si       2.35460547      -0.40353588       2.67302301       0.00000000
Si      -2.71061837       2.71084177      -0.00045104       0.00000000
Si       0.00175932       2.71027821      -2.71601037       0.00000000
Si      -2.71355955      -0.00469152      -2.71684306       0.00000000
Si       2.71642266       2.71456765      -0.00093677       0.00000000
Si      -2.72113985      -2.71072116      -0.00149189       0.00000000
