10
Lattice="10.86 0.0 0.0 0.0 10.86 0.0 0.0 0.0 10.86" Properties=species:S:1:pos:R:3:initial_magmoms:R:1 pbc="T T T"
Si      -1.49581296       1.12081716      -1.11696186       0.00000000
Si       1.21918704      -1.59418284      -1.11696186       0.00000000
Si       1.21918704       1.12081716       1.59803814       0.00000000
Si      -0.13831296       2.47831716      -2.47446186       0.00000000
Si       2.57668704      -0.23668284      -2.47446186       0.00000000
Si       2.57668704       2.47831716       0.24053814       0.00000000
Si      -2.85331296      -0.23668284      -2.47446186       0.00000000
Si      -0.13831296      -2.95168284      -2.47446186       0.00000000
Si       0.04961934       2.36405910       3.08281734       0.00000000
Si       2.57668704      -2.95168284       0.24053814       0.00000000
