10
Lattice="10.86 0.0 0.0 0.0 10.86 0.0 0.0 0.0 10.86" Properties=species:S:1:pos:R:3:initial_magmoms:R:1 pbc="T T T"
Si       1.09932522       1.32247650       1.58639622       0.00000000
Si       1.60924566      -0.70584570      -1.58791662       0.00000000
Si      -1.61567478       1.32247650      -1.12860378       0.00000000
Si      -1.61567478      -1.39252350       1.58639622       0.00000000
Si       0.05860056      -2.22141300      -2.25623016       0.00000000
Si       2.33381400       2.65657320       0.19408992       0.00000000
Si       2.57963010      -2.67195096       0.08898684       0.00000000
Si      -0.41407008       2.66642322      -2.56354644       0.00000000
Si       1.64050074       1.14362316      -3.19451244       0.00000000
Si       2.45682522      -0.03502350       2.94389622       0.00000000
