10
Lattice="10.86 0.0 0.0 0.0 10.86 0.0 0.0 0.0 10.86" Properties=species:S:1:pos:R:3:initial_magmoms:R:1 pbc="T T T"
Si      -1.23448878       1.38090330      -1.32269370       0.00000000
Si      -1.23448878      -1.33409670       1.39230630       0.00000000
Si       1.48051122       1.38090330       1.39230630       0.00000000
Si      -2.33381400      -2.65657320      -0.19408992       0.00000000
Si      -2.59198878       2.73840330       0.03480630       0.00000000
Si      -0.69331326      -1.51295004      -3.38860236       0.00000000
Si      -2.59198878       0.02340330       2.74980630       0.00000000
Si       0.12301122       2.73840330      -2.68019370       0.00000000
Si       0.12301122      -2.69159670       2.74980630       0.00000000
Si      -0.72456834      -3.36241890      -1.78200654       0.00000000
