10
Lattice="16.28999089631971 0.0 0.0 0.0 16.28999089631971 0.0 0.0 0.0 34.71893929493243" Properties=species:S:1:pos:R:3:initial_magmoms:R:1 pbc="T T T"
Si      -1.34631963      -1.34439482      -1.31556384       0.00000000
Si      -1.35466011       1.35473504       1.35445602       0.00000000
Si       1.36125756      -1.36004462       1.35546287       0.00000000
Si       1.36650294       1.35532148      -1.36832971       0.00000000
Si       2.56227039      -0.18872942      -2.65318116       0.00000000
Si      -0.06955830      -2.74445516      -2.58831920       0.00000000
Si      -2.66323418      -0.05008198      -2.70293690       0.00000000
Si      -2.70979263       2.71213187      -0.00784648       0.00000000
Si      -2.71164154      -0.00155244       2.71238393       0.00000000
Si       0.00327429       2.71338620       2.71189786       0.00000000
