10
Lattice="16.28999089631971 0.0 0.0 0.0 16.28999089631971 0.0 0.0 0.0 34.71893929493243" Properties=species:S:1:pos:R:3:initial_magmoms:R:1 pbc="T T T"
Si      -0.95824296      -1.57698181       1.39646526       0.00000000
Si       1.56305808      -0.69961870      -1.60946195       0.00000000
Si       1.67358573       0.97874392       1.33160330       0.00000000
Si      -1.61259597       1.25601764      -1.18887648       0.00000000
Si       2.02790952       1.59527481      -1.74125511       0.00000000
Si       0.00392589       2.93284671      -1.76274615       0.00000000
Si      -2.23500429      -0.17692147       2.66922063       0.00000000
Si       0.18283896      -2.06460667      -2.91989432       0.00000000
Si      -2.66147649      -2.50627744       0.19617705       0.00000000
Si       0.47781828       2.52279483       2.61645475       0.00000000
