10
Lattice="16.28999089631971 0.0 0.0 0.0 16.28999089631971 0.0 0.0 0.0 34.71893929493243" Properties=species:S:1:pos:R:3:initial_magmoms:R:1 pbc="T T T"
Si       1.64540403       1.58017887       0.63035741       0.00000000
Si       0.38187018      -1.09585762      -2.10337867       0.00000000
Si       0.19318311      -1.52112925       1.91398676       0.00000000
Si      -2.26678608       0.83597022      -0.45617240       0.00000000
Si      -0.19660401      -3.21115715      -1.44378790       0.00000000
Si       3.61048302       0.65096469      -0.36805568       0.00000000
Si       0.53225946      -3.60164474       0.79548078       0.00000000
Si       1.04140341       3.67433982      -0.39471984       0.00000000
Si      -1.98068481      -1.68621048       2.91524680       0.00000000
Si      -3.78325476      -1.01774870      -0.45693622       0.00000000
