10
Lattice="16.28999089631971 0.0 0.0 0.0 16.28999089631971 0.0 0.0 0.0 34.71893929493243" Properties=species:S:1:pos:R:3:initial_magmoms:R:1 pbc="T T T"
Si      -1.35109260       1.35215145       1.35765016       0.00000000
Si      -1.34249148      -1.35347094      -1.37317301       0.00000000
Si       1.34159553       1.36071999      -1.37464162       0.00000000
Si       1.36153449      -1.36138788       1.35525455       0.00000000
Si       2.52993474      -0.06962346      -2.84527422       0.00000000
Si      -2.70963462      -0.00314397       2.71495313       0.00000000
Si       0.00532683       2.71119357       2.71411988       0.00000000
Si      -2.71011191       2.71534752      -0.00329830       0.00000000
Si       0.10062333      -2.64262896      -2.77974565       0.00000000
Si      -2.70777267      -2.71985985      -0.00562447       0.00000000
