10
Lattice="16.28999089631971 0.0 0.0 0.0 16.28999089631971 0.0 0.0 0.0 34.71893929493243" Properties=species:S:1:pos:R:3:initial_magmoms:R:1 pbc="T T T"
Si      -1.35923760       1.35391077      -1.36553136       0.00000000
Si       1.35762489      -1.36104579      -1.36473283       0.00000000
Si       1.35198855       1.36728486       1.38573780       0.00000000
Si      -1.35755973      -1.37924172       1.37726637       0.00000000
Si       2.71282257       2.71132389      -0.00208314       0.00000000
Si       2.65613337      -0.11256390       2.76796898       0.00000000
Si      -2.71663443       2.71252935      -0.00086797       0.00000000
Si      -2.71476108      -2.71850778      -0.00638829       0.00000000
Si      -0.00055386       2.71217097      -2.72137614       0.00000000
Si       2.71430496      -0.00219915      -2.72168861       0.00000000
