10
Lattice="16.28999089631971 0.0 0.0 0.0 16.28999089631971 0.0 0.0 0.0 34.71893929493243" Properties=species:S:1:pos:R:3:initial_magmoms:R:1 pbc="T T T"
Si       0.52201305       1.69046217       1.57728229       0.00000000
Si      -2.24463168       0.49376619      -0.59838125       0.00000000
Si       1.38468258       0.10111203      -1.96679429       0.00000000
Si       0.60400062      -2.09416095       1.02507726       0.00000000
Si       3.36118086      -0.98359020      -0.91772624       0.00000000
Si       0.41733351       0.53515908       3.58566990       0.00000000
Si       2.86534584       2.05315902       1.40962444       0.00000000
Si      -2.65189797       2.76622119      -0.04471802       0.00000000
Si      -1.04140341      -3.67433982       0.39471984       0.00000000
Si      -3.69462087      -0.68206230       0.88165324       0.00000000
