10
Lattice="16.28999089631971 0.0 0.0 0.0 16.28999089631971 0.0 0.0 0.0 34.71893929493243" Properties=species:S:1:pos:R:3:initial_magmoms:R:1 pbc="T T T"
Si       0.30998241       0.46289012      -2.25301739       0.00000000
Si      -1.46184994      -1.83720153       0.35944538       0.00000000
Si       2.11255236      -0.20557165       1.11916563       0.00000000
Si      -1.24043463       1.88308327       0.83061637       0.00000000
Si       1.74952971       1.60515958       2.53927520       0.00000000
Si      -2.06344290       0.44392693      -2.79373045       0.00000000
Si       0.18332766      -3.34936965       1.11420082       0.00000000
Si      -3.48277661      -0.22458046      -0.91682354       0.00000000
Si       1.81732869      -2.22918780       2.34109938       0.00000000
Si       1.82645109       2.31660904      -2.25225357       0.00000000
