10
Lattice="16.28999089631971 0.0 0.0 0.0 16.28999089631971 0.0 0.0 0.0 34.71893929493243" Properties=species:S:1:pos:R:3:initial_magmoms:R:1 pbc="T T T"
Si       1.81977219       1.28884851       0.77089976       0.00000000
Si      -1.89737775       1.62496008      -0.27795998       0.00000000
Si       0.96689295      -0.88304832      -2.23367893       0.00000000
Si      -0.64917279      -1.46368908       2.09976790       0.00000000
Si       1.59837480       1.13269257       3.15553672       0.00000000
Si       2.91079494      -2.14531155      -1.12690796       0.00000000
Si       3.88146717      -0.09042579       0.22914513       0.00000000
Si       1.55562984       3.61131381      -0.54133800       0.00000000
Si      -0.24190650      -3.73614408       1.54610467       0.00000000
Si      -4.02045345       0.52823583       0.39121323       0.00000000
