10
Lattice="16.28999089631971 0.0 0.0 0.0 16.28999089631971 0.0 0.0 0.0 34.71893929493243" Properties=species:S:1:pos:R:3:initial_magmoms:R:1 pbc="T T T"
Si      -1.35949824      -1.34483724       1.36362182       0.00000000
Si       1.35925389      -1.35397593      -1.36011521       0.00000000
Si      -1.35641943       1.35935882      -1.35976802       0.00000000
Si       1.36161594       1.36836719       1.38101602       0.00000000
Si      -2.54324367       0.10972229       2.85688424       0.00000000
Si       2.71497285      -2.71036278      -0.00232617       0.00000000
Si      -2.71505430      -2.71327869      -0.00215258       0.00000000
Si       0.00073305      -2.71212210      -2.71703627       0.00000000
Si      -2.71329498       2.71620179      -0.00128460       0.00000000
Si      -2.71386513       0.00197450      -2.71693211       0.00000000
