10
Lattice="16.28999089631971 0.0 0.0 0.0 16.28999089631971 0.0 0.0 0.0 34.71893929493243" Properties=species:S:1:pos:R:3:initial_magmoms:R:1 pbc="T T T"
Si       1.31691455      -1.29431285       1.38737306       0.00000000
Si       0.89676287       1.86059493      -1.16552065       0.00000000
Si      -0.70607865      -1.84040252      -1.33790354       0.00000000
Si      -1.42449518       1.38469887       1.32810433       0.00000000
Si       1.93932287       0.13862627      -2.47072405       0.00000000
Si       0.06467782      -1.08487979      -3.44913902       0.00000000
Si       2.59367588      -2.69437319       0.11461770       0.00000000
Si      -2.68574112      -2.63137976      -0.14317404       0.00000000
Si      -0.05260693      -2.66290091       2.70311050       0.00000000
Si       2.66323418       0.05008198       2.70293690       0.00000000
