10
Lattice="16.28999089631971 0.0 0.0 0.0 16.28999089631971 0.0 0.0 0.0 34.71893929493243" Properties=species:S:1:pos:R:3:initial_magmoms:R:1 pbc="T T T"
Si      -1.19728731      -0.37892169      -1.99946483       0.00000000
Si      -1.69199410      -0.25474302       1.67734233       0.00000000
Si       0.76856872       2.26724220      -0.18699631       0.00000000
Si       2.21388268      -0.96021568      -0.14005628       0.00000000
Si       0.07190569       0.39097629       3.14355868       0.00000000
Si       1.66557757       1.96902117      -2.41640481       0.00000000
Si      -1.12317106      -2.73654800      -2.12212691       0.00000000
Si       0.26041846       0.51546447      -3.66194745       0.00000000
Si      -3.43479604       0.35523603      -1.40337503       0.00000000
Si       3.25038280       0.23754078      -1.95328862       0.00000000
