10
Lattice="16.28999089631971 0.0 0.0 0.0 16.28999089631971 0.0 0.0 0.0 34.71893929493243" Properties=species:S:1:pos:R:3:initial_magmoms:R:1 pbc="T T T"
Si      -0.33907635       2.08051549       1.11850597       0.00000000
Si      -0.72886347       0.39048759      -2.23926868       0.00000000
Si      -1.19004966      -1.93525200       0.74430504       0.00000000
Si       2.28336930      -0.75041514      -0.02437271       0.00000000
Si       0.10479357      -3.65140350      -0.17914983       0.00000000
Si      -0.53225946       3.60164474      -0.79548078       0.00000000
Si       2.13099264      -2.97575946       0.72944532       0.00000000
Si      -2.51294427       1.91543426       2.11976602       0.00000000
Si      -1.20508533      -1.80721260       3.14012150       0.00000000
Si      -0.15038928       2.50578711      -2.89885946       0.00000000
