10
Lattice="16.28999089631971 0.0 0.0 0.0 16.28999089631971 0.0 0.0 0.0 34.71893929493243" Properties=species:S:1:pos:R:3:initial_magmoms:R:1 pbc="T T T"
Si      -1.08595656      -1.55334924       1.52332004       0.00000000
Si       1.54080594       1.00344771       1.59670898       0.00000000
Si      -0.61776567      -0.89358795      -2.28426445       0.00000000
Si      -1.23834951       1.96731072      -1.17999325       0.00000000
Si      -2.61856863       0.60232275      -2.49042563       0.00000000
Si       2.45614104       2.81050460       0.36402828       0.00000000
Si      -2.74784607      -2.65662207       0.19550246       0.00000000
Si      -2.32516944      -0.24394275       3.04998904       0.00000000
Si      -2.80140759       2.66692942       0.42946870       0.00000000
Si       1.19184156       1.66390947      -3.34912963       0.00000000
