10
Lattice="16.28999089631971 0.0 0.0 0.0 16.28999089631971 0.0 0.0 0.0 34.71893929493243" Properties=species:S:1:pos:R:3:initial_magmoms:R:1 pbc="T T T"
Si       1.34640108       1.35325917      -1.36349336       0.00000000
Si      -1.35971001       1.35163017       1.35733769       0.00000000
Si       1.35487188      -1.36185119       1.35730297       0.00000000
Si      -1.36645407      -1.38794091      -1.34887668       0.00000000
Si      -0.15011235       2.58274692      -2.75851501       0.00000000
Si       2.59265124      -0.03303286      -2.81934263       0.00000000
Si       2.71326240       2.70860346      -0.00048607       0.00000000
Si      -2.71285515       2.71098180      -0.00048607       0.00000000
Si      -0.00052128       2.71011843       2.71530032       0.00000000
Si       2.71352304      -0.00374670       2.71523088       0.00000000
