10
Lattice="16.28999089631971 0.0 0.0 0.0 16.28999089631971 0.0 0.0 0.0 34.71893929493243" Properties=species:S:1:pos:R:3:initial_magmoms:R:1 pbc="T T T"
Si       1.65382596       1.05067242      -1.29118044       0.00000000
Si      -1.23357654       1.49288076       1.37367643       0.00000000
Si       1.49651343      -1.22948775       1.39502165       0.00000000
Si      -0.87726537      -1.93492620      -1.17442468       0.00000000
Si       0.29304081       0.94568337      -3.20854358       0.00000000
Si       3.45805749      -0.64666413      -1.31931144       0.00000000
Si      -2.56274280       0.12823488       2.75802894       0.00000000
Si       0.15011235      -2.58274692       2.75851501       0.00000000
Si       2.74276359      -2.61577978      -0.06082762       0.00000000
Si      -2.72192868      -2.77427171       0.10807665       0.00000000
