10
Lattice="16.28999089631971 0.0 0.0 0.0 16.28999089631971 0.0 0.0 0.0 34.71893929493243" Properties=species:S:1:pos:R:3:initial_magmoms:R:1 pbc="T T T"
Si       0.38454174       0.22487693      -2.27634853       0.00000000
Si       1.69885152       0.29159589       1.56585976       0.00000000
Si      -2.07972801       0.52831239       1.00806497       0.00000000
Si       0.42971391      -2.50711149      -0.11002438       0.00000000
Si       1.61904681      -2.09945424       1.95648276       0.00000000
Si       2.09927601      -1.51294908      -2.25603794       0.00000000
Si      -2.65820220      -1.58698713       1.66765574       0.00000000
Si      -1.86729012      -3.15025698       0.03089987       0.00000000
Si       1.14888483       2.27513471       2.74338796       0.00000000
Si      -1.41972237      -0.79695471      -3.43203851       0.00000000
