10
Lattice="16.28999089631971 0.0 0.0 0.0 16.28999089631971 0.0 0.0 0.0 34.71893929493243" Properties=species:S:1:pos:R:3:initial_magmoms:R:1 pbc="T T T"
Si      -0.12533526       2.12389834       1.07326717       0.00000000
Si      -0.03683169      -1.47056250       1.90794566       0.00000000
Si       2.28358107      -0.18862028      -0.79808470       0.00000000
Si      -1.77518646      -0.37454945      -1.80424013       0.00000000
Si       0.52729101       3.30107890      -0.85943310       0.00000000
Si       2.31199083      -2.45486946      -1.30664801       0.00000000
Si      -2.43186894       2.58239668       1.19582509       0.00000000
Si       2.27258532      -1.31300562       2.78015534       0.00000000
Si       3.76999470      -0.44696013       1.04195067       0.00000000
Si      -0.52492896      -3.76733847       1.22280173       0.00000000
