10
Lattice="16.28999089631971 0.0 0.0 0.0 16.28999089631971 0.0 0.0 0.0 34.71893929493243" Properties=species:S:1:pos:R:3:initial_magmoms:R:1 pbc="T T T"
Si       0.39972402      -0.37728359      -2.25614209       0.00000000
Si      -0.91533510      -1.80705689       1.23268070       0.00000000
Si      -1.73929959       1.67451426       0.11454240       0.00000000
Si       1.88072937       0.99366068       1.22813946       0.00000000
Si       0.15688899       2.33877159      -2.39439299       0.00000000
Si      -2.07837594      -0.36124737       2.69860540       0.00000000
Si       0.63447921       2.37995271       2.68398872       0.00000000
Si      -2.45614104      -2.81050460      -0.36402828       0.00000000
Si       2.60739369      -1.05310682      -2.61992734       0.00000000
Si      -3.22963911       1.45169964      -1.67581470       0.00000000
