10
Lattice="16.28999089631971 0.0 0.0 0.0 16.28999089631971 0.0 0.0 0.0 34.71893929493243" Properties=species:S:1:pos:R:3:initial_magmoms:R:1 pbc="T T T"
Si      -1.32916626      -1.36464588       1.38435251       0.00000000
Si       1.23357654      -1.49288076      -1.37367643       0.00000000
Si       1.38404727       1.35324288       1.38344982       0.00000000
Si      -1.52270775       1.28394522      -1.45991485       0.00000000
Si      -2.68411959      -2.72310156       0.01925166       0.00000000
Si      -2.71104696       2.71428867       0.01071774       0.00000000
Si       2.72588715       2.70068652       0.00849226       0.00000000
Si      -2.69110800      -0.00781920       2.74061391       0.00000000
Si       0.02415807       2.70464499       2.74332199       0.00000000
Si       2.73008997      -2.72236851       0.02134522       0.00000000
