10
Lattice="16.28999089631971 0.0 0.0 0.0 16.28999089631971 0.0 0.0 0.0 34.71893929493243" Properties=species:S:1:pos:R:3:initial_magmoms:R:1 pbc="T T T"
Si       0.30991725      -2.01969936      -1.09021002       0.00000000
Si       1.85854239       0.02832831       1.39757696       0.00000000
Si       0.27956898       1.53231885      -1.74608587       0.00000000
Si      -2.32443639      -0.09106110       0.43895179       0.00000000
Si      -1.20961395      -1.59459552      -2.78789766       0.00000000
Si      -0.56814633      -3.58076029       0.50030019       0.00000000
Si       3.56050530       0.91494414      -0.08197146       0.00000000
Si       1.33884252       1.64906928       3.02697241       0.00000000
Si      -3.17469294      -0.66538134      -1.78948457       0.00000000
Si      -0.41751270       0.44518941      -3.73228806       0.00000000
