10
Lattice="16.28999089631971 0.0 0.0 0.0 16.28999089631971 0.0 0.0 0.0 34.71893929493243" Properties=species:S:1:pos:R:3:initial_magmoms:R:1 pbc="T T T"
Si      -1.03692366       2.05499979       0.33215628       0.00000000
Si      -0.65262627      -1.17718056       1.93270027       0.00000000
Si       2.32443639       0.09106110      -0.43895179       0.00000000
Si      -0.85025655      -0.57432024      -2.22843636       0.00000000
Si      -0.52729101      -3.30107890       0.85943310       0.00000000
Si       2.63435364      -1.92863826      -1.52916182       0.00000000
Si      -3.18446694       1.38626271       1.04896390       0.00000000
Si      -2.95915995      -0.71868222       2.05525820       0.00000000
Si       1.11482244      -1.50353442      -3.22684946       0.00000000
Si      -0.93224412       3.21030288      -1.67623133       0.00000000
