10
Lattice="16.28999089631971 0.0 0.0 0.0 16.28999089631971 0.0 0.0 0.0 34.71893929493243" Properties=species:S:1:pos:R:3:initial_magmoms:R:1 pbc="T T T"
Si       1.35854202       1.35529542      -1.35730297       0.00000000
Si       1.35735285      -1.35801585       1.35678219       0.00000000
Si      -1.35782971       1.35739683       1.35716410       0.00000000
Si      -1.35819734      -1.35759231      -1.35806679       0.00000000
Si       2.70963462       0.00314397      -2.71495313       0.00000000
Si       2.71393518      -0.00166158       2.71335606       0.00000000
Si       2.71496145       2.71433754      -0.00083326       0.00000000
Si      -2.71521950       0.00061902       2.71474482       0.00000000
Si      -2.71530095       2.71480995      -0.00041663       0.00000000
Si       2.71492887      -2.71546155      -0.00083326       0.00000000
