10
Lattice="16.28999089631971 0.0 0.0 0.0 16.28999089631971 0.0 0.0 0.0 34.71893929493243" Properties=species:S:1:pos:R:3:initial_magmoms:R:1 pbc="T T T"
Si      -1.35619137       1.36011726      -1.36039296       0.00000000
Si       1.36112724      -1.35563751      -1.36094846       0.00000000
Si      -1.36541151      -1.33507953       1.38195343       0.00000000
Si       1.38043089       1.35853713       1.37240572       0.00000000
Si       0.07576479      -2.66449014       2.67495689       0.00000000
Si      -2.71490769      -2.71440270       0.00190954       0.00000000
Si      -2.71327869       0.00201996      -2.71734874       0.00000000
Si       0.00218286      -2.71308321      -2.71814728       0.00000000
Si       2.71673217      -2.71474479      -0.00628413       0.00000000
Si       2.71801908       2.71412577      -0.00163179       0.00000000
