10
Lattice="16.28999089631971 0.0 0.0 0.0 16.28999089631971 0.0 0.0 0.0 34.71893929493243" Properties=species:S:1:pos:R:3:initial_magmoms:R:1 pbc="T T T"
Si       0.16202034       1.20791979       2.04480779       0.00000000
Si      -0.66880224      -1.72693548       1.53766796       0.00000000
Si      -1.65540609       0.35938998      -1.78729727       0.00000000
Si       2.27193372       0.26428896      -0.92467003       0.00000000
Si       0.35171739      -0.73153503       3.44325273       0.00000000
Si      -0.04476492       1.30091940      -3.31382045       0.00000000
Si      -1.91229939       2.25815238       2.04768947       0.00000000
Si       3.33777213       0.89213814       1.26519357       0.00000000
Si       0.52411446      -3.67655526       1.19651947       0.00000000
Si       2.12480244       2.30948217      -2.41067618       0.00000000
