10
Lattice="16.28999089631971 0.0 0.0 0.0 16.28999089631971 0.0 0.0 0.0 34.71893929493243" Properties=species:S:1:pos:R:3:initial_magmoms:R:1 pbc="T T T"
Si       1.22005584       1.70758296      -1.08975868       0.00000000
Si       0.05592357       0.29449062       2.34780014       0.00000000
Si       0.80746272      -2.06596296      -0.84804529       0.00000000
Si      -2.31914214       0.41894622      -0.51668754       0.00000000
Si       0.19930815       1.52101359      -3.19067230       0.00000000
Si      -2.20832127       1.13254596       2.61058794       0.00000000
Si      -2.28380913       1.53168354      -2.56055792       0.00000000
Si      -0.24852024      -2.40329628      -2.91601062       0.00000000
Si      -1.06725564      -0.32694030      -3.66607901       0.00000000
Si       1.95957297       1.36596537       3.22223184       0.00000000
