10
Lattice="16.28999089631971 0.0 0.0 0.0 16.28999089631971 0.0 0.0 0.0 34.71893929493243" Properties=species:S:1:pos:R:3:initial_magmoms:R:1 pbc="T T T"
Si       1.06541487       1.67806548       1.32362354       0.00000000
Si      -1.73863170      -0.91427625       1.39367598       0.00000000
Si       1.62987966      -1.98558810       0.01017265       0.00000000
Si      -0.00801468       0.36888705      -2.61107401       0.00000000
Si       0.30960774      -2.68079643      -1.97561291       0.00000000
Si       2.30747850       0.32835753       2.82180563       0.00000000
Si      -0.41884848      -2.38725063       2.80525510       0.00000000
Si       1.67827725      -1.24768368      -3.19140140       0.00000000
Si       2.75978664       2.72753244       0.09790746       0.00000000
Si       3.53030364      -1.06872174       1.33807010       0.00000000
