10
Lattice="16.28999089631971 0.0 0.0 0.0 16.28999089631971 0.0 0.0 0.0 34.71893929493243" Properties=species:S:1:pos:R:3:initial_magmoms:R:1 pbc="T T T"
Si       1.46473164       0.75061062       1.64047080       0.00000000
Si      -0.15237666      -2.22534432       0.75381803       0.00000000
Si       1.26501624       0.62843562      -1.92606895       0.00000000
Si      -2.28336930       0.75041514       0.02437271       0.00000000
Si      -2.17857573      -2.90098836      -0.15477712       0.00000000
Si      -3.47341896      -1.18483686       0.76867775       0.00000000
Si       1.11092913      -0.57252834       3.53980615       0.00000000
Si       1.92194307      -3.27557691       0.75093636       0.00000000
Si      -0.15563466      -2.42048223       3.06439945       0.00000000
Si      -3.01223277       1.14090273      -2.21489597       0.00000000
