10
Lattice="16.28999089631971 0.0 0.0 0.0 16.28999089631971 0.0 0.0 0.0 34.71893929493243" Properties=species:S:1:pos:R:3:initial_magmoms:R:1 pbc="T T T"
Si       0.03533301       1.11273732      -2.04387038       0.00000000
Si      -1.37930688      -1.88931420      -0.07086139       0.00000000
Si      -1.38129426       1.48356288       1.30206511       0.00000000
Si       2.31914214      -0.41894622       0.51668754       0.00000000
Si       0.11082087       0.71359974       3.12727549       0.00000000
Si       1.25188650      -0.74588652      -3.14939146       0.00000000
Si      -2.82468600      -1.39474980      -1.93592914       0.00000000
Si       0.52343028       3.40951329      -1.35872645       0.00000000
Si       2.37506571      -0.12445560       2.86448769       0.00000000
Si      -2.08093347       0.61779825      -3.04929670       0.00000000
