10
Lattice="16.28999089631971 0.0 0.0 0.0 16.28999089631971 0.0 0.0 0.0 34.71893929493243" Properties=species:S:1:pos:R:3:initial_magmoms:R:1 pbc="T T T"
Si       1.35614643      -1.35718378      -1.36442036       0.00000000
Si      -1.35853713       1.36174821      -1.36372598       0.00000000
Si      -1.36616085      -1.35143341       1.38830700       0.00000000
Si       1.36136412       1.36410701       1.38254365       0.00000000
Si       2.71230848      -2.71376611      -0.00624941       0.00000000
Si       2.71406780       2.71571437      -0.00538144       0.00000000
Si      -2.71541268      -2.71591639      -0.00461762       0.00000000
Si       2.71349765       0.00148708      -2.72102895       0.00000000
Si      -0.00112752      -2.71370095      -2.72127198       0.00000000
Si      -2.71906164       2.71796239      -0.00607582       0.00000000
