10
Lattice="16.28999089631971 0.0 0.0 0.0 16.28999089631971 0.0 0.0 0.0 34.71893929493243" Properties=species:S:1:pos:R:3:initial_magmoms:R:1 pbc="T T T"
Si       1.35702895       1.35531823      -1.35785847       0.00000000
Si      -1.36052451       1.35621418       1.35765016       0.00000000
Si      -1.35834165      -1.35935207      -1.35733769       0.00000000
Si       1.35853713      -1.36174821       1.36372598       0.00000000
Si      -2.71510317       2.71157476      -0.00003472       0.00000000
Si      -0.00096111       2.71261732      -2.71457122       0.00000000
Si       2.71464120       2.71255216       0.00090269       0.00000000
Si       2.71420626      -0.00235391      -2.71450179       0.00000000
Si      -2.71762812       0.02770603       2.71259224       0.00000000
Si      -2.71630863      -0.00175280      -2.71439763       0.00000000
