10
Lattice="16.28999089631971 0.0 0.0 0.0 16.28999089631971 0.0 0.0 0.0 34.71893929493243" Properties=species:S:1:pos:R:3:initial_magmoms:R:1 pbc="T T T"
Si       1.28945124      -1.30332560       1.41566554       0.00000000
Si       1.35710361       1.32850814      -1.35494208       0.00000000
Si      -1.36008468      -1.38395580      -1.35244232       0.00000000
Si      -1.28049174       1.44178880       1.43781624       0.00000000
Si      -0.57474378      -2.16492212       2.58520838       0.00000000
Si      -2.28947805      -0.42709611       2.56489779       0.00000000
Si      -2.71516833       2.67209105       0.00795064       0.00000000
Si       0.00252495       2.68386872      -2.71262696       0.00000000
Si       2.62545930       0.04068753       2.77248245       0.00000000
Si       2.70418887       2.69870891       0.02742798       0.00000000
