10
Lattice="16.28999089631971 0.0 0.0 0.0 16.28999089631971 0.0 0.0 0.0 34.71893929493243" Properties=species:S:1:pos:R:3:initial_magmoms:R:1 pbc="T T T"
Si      -0.57155094       1.52966195       1.63953339       0.00000000
Si      -1.33600806      -1.34401313      -1.35681691       0.00000000
Si       1.42356681       1.30616315      -1.34157528       0.00000000
Si      -0.09466119      -1.86138567       2.14448592       0.00000000
Si      -1.31445639      -0.14509177       3.14012150       0.00000000
Si       2.25460346      -1.69688925       2.23117916       0.00000000
Si       2.60529132       2.74737203       0.13286945       0.00000000
Si      -2.62545930      -0.04068753      -2.77248245       0.00000000
Si       0.07872957       2.65802138      -2.74505447       0.00000000
Si      -3.20020308      -2.20560966      -0.18727406       0.00000000
