10
Lattice="16.28999089631971 0.0 0.0 0.0 16.28999089631971 0.0 0.0 0.0 34.71893929493243" Properties=species:S:1:pos:R:3:initial_magmoms:R:1 pbc="T T T"
Si      -1.35656604      -1.35918873       1.35667803       0.00000000
Si      -1.35729909       1.35747828      -1.35771960       0.00000000
Si       1.35751086       1.35790182       1.35730297       0.00000000
Si       1.35757602      -1.35814617      -1.35785847       0.00000000
Si       0.00037467       2.71269225       2.71116877       0.00000000
Si      -2.71417464       2.71435383      -0.00069438       0.00000000
Si      -0.00198738      -2.71454931       2.71436291       0.00000000
Si       2.71490065       2.71467963      -0.00027775       0.00000000
Si       0.00066789       2.71480995      -2.71491841       0.00000000
Si       2.71453302      -0.00030951      -2.71550864       0.00000000
