10
Lattice="16.28999089631971 0.0 0.0 0.0 16.28999089631971 0.0 0.0 0.0 34.71893929493243" Properties=species:S:1:pos:R:3:initial_magmoms:R:1 pbc="T T T"
Si      -1.08223171      -0.93043593      -1.84152829       0.00000000
Si       0.95754412      -1.53191160       1.49232500       0.00000000
Si       1.40617072       1.43454627      -1.22103106       0.00000000
Si      -1.61817271       1.22614830       1.20349798       0.00000000
Si      -2.62214170       2.29579857      -0.73465317       0.00000000
Si       2.36270323      -0.07835490       2.73786764       0.00000000
Si       0.13453585      -2.97106794      -2.13202182       0.00000000
Si      -2.92968061      -2.17155474      -1.10395873       0.00000000
Si       1.42304716       0.74691279      -3.47699956       0.00000000
Si       3.63799846       1.05792147      -0.64743914       0.00000000
