10
Lattice="16.28999089631971 0.0 0.0 0.0 16.28999089631971 0.0 0.0 0.0 34.71893929493243" Properties=species:S:1:pos:R:3:initial_magmoms:R:1 pbc="T T T"
Si       1.98017656       1.05896403       0.62900337       0.00000000
Si       0.79657774      -2.20397184      -0.12818240       0.00000000
Si      -0.20168160       0.63239409      -2.30808166       0.00000000
Si      -2.04655572       0.55631979       1.15256527       0.00000000
Si       1.33931167       3.23081199       0.26001028       0.00000000
Si      -3.23173467      -1.34271954       0.35819550       0.00000000
Si       2.20530436       0.39829050       2.83865678       0.00000000
Si       0.69984772       2.85961176      -2.18951641       0.00000000
Si      -1.76371245      -0.28168668       3.31795201       0.00000000
Si      -2.51885169       0.43878744      -2.83056726       0.00000000
