10
Lattice="16.28999089631971 0.0 0.0 0.0 16.28999089631971 0.0 0.0 0.0 34.71893929493243" Properties=species:S:1:pos:R:3:initial_magmoms:R:1 pbc="T T T"
Si      -0.47037375      -2.28931515      -0.07131274       0.00000000
Si       2.31677750       0.35236899       0.04357229       0.00000000
Si      -0.64534464       0.46898910       2.22367987       0.00000000
Si      -1.44557460       0.66220479      -1.77163902       0.00000000
Si      -1.26576558       2.71826343       1.97953615       0.00000000
Si       2.85557251      -0.62161011       2.15573486       0.00000000
Si      -0.92587473      -0.95853618      -3.40103448       0.00000000
Si      -2.86941834      -2.23697538       0.72951476       0.00000000
Si       2.54100772       2.68089417       0.59428442       0.00000000
Si      -0.34340949      -2.99020869      -2.33318346       0.00000000
