10
Lattice="16.28999089631971 0.0 0.0 0.0 16.28999089631971 0.0 0.0 0.0 34.71893929493243" Properties=species:S:1:pos:R:3:initial_magmoms:R:1 pbc="T T T"
Si       0.14713128      -2.04519321       1.48600615       0.00000000
Si      -2.16956736      -1.00856277      -0.90314427       0.00000000
Si      -0.32708691       2.15594892       1.35508096       0.00000000
Si       1.75239675      -0.23802948      -2.07279127       0.00000000
Si       2.80826961       0.14934672       0.14887489       0.00000000
Si      -0.06939540      -1.25459064      -3.61101474       0.00000000
Si      -1.26786699      -2.80929195      -2.31016479       0.00000000
Si       0.96606216       3.73317930      -0.10228205       0.00000000
Si      -2.12480244      -2.30948217       2.41067618       0.00000000
Si       1.38916233      -3.75225489       0.14439615       0.00000000
