10
Lattice="16.28999089631971 0.0 0.0 0.0 16.28999089631971 0.0 0.0 0.0 34.71893929493243" Properties=species:S:1:pos:R:3:initial_magmoms:R:1 pbc="T T T"
Si       0.28284327      -0.83800647       2.16538674       0.00000000
Si      -0.64848861       2.21737851      -0.45165893       0.00000000
Si      -1.18517895      -1.89903933      -0.79436978       0.00000000
Si       2.04655572      -0.55631979      -1.15256527       0.00000000
Si      -0.18120996      -2.96868960       1.14378138       0.00000000
Si       1.36105949       3.20484573       0.15922114       0.00000000
Si      -1.71432702       1.58952933      -2.64152253       0.00000000
Si      -1.81496664      -0.25826166       3.12481044       0.00000000
Si       2.20637203       0.38266839       2.85094729       0.00000000
Si       1.26306048       2.61733059       2.48966181       0.00000000
