10
Lattice="16.28999089631971 0.0 0.0 0.0 16.28999089631971 0.0 0.0 0.0 34.71893929493243" Properties=species:S:1:pos:R:3:initial_magmoms:R:1 pbc="T T T"
Si      -2.27193372      -0.26428896       0.92467003       0.00000000
Si       1.24203105      -1.70706168      -1.34161000       0.00000000
Si       1.06583841       0.62784918       2.18986360       0.00000000
Si      -0.14713128       2.04519321      -1.48600615       0.00000000
Si      -2.31669864       1.03663044      -2.38915042       0.00000000
Si       1.71432702      -1.58952933       2.64152253       0.00000000
Si       2.66113833       2.19453993      -1.33713126       0.00000000
Si      -2.10991338       0.94363083       2.96947782       0.00000000
Si       3.55920114      -1.51345503      -0.81912439       0.00000000
Si       0.52914807      -3.48856866       1.84715276       0.00000000
