10
Lattice="16.28999089631971 0.0 0.0 0.0 16.28999089631971 0.0 0.0 0.0 34.71893929493243" Properties=species:S:1:pos:R:3:initial_magmoms:R:1 pbc="T T T"
Si       0.04298931       1.70585622      -1.61863257       0.00000000
Si      -2.29759047       0.31703598       0.55494784       0.00000000
Si       1.76707404       0.06392196       1.60790442       0.00000000
Si       0.36556389      -1.98156447      -1.31345293       0.00000000
Si       3.39068924       0.83730600       0.01062400       0.00000000
Si       2.32783353       2.20548681      -1.69036194       0.00000000
Si      -3.31833816       0.13046661      -1.54596579       0.00000000
Si      -0.43484526      -3.67500771       0.09728252       0.00000000
Si      -0.74044566       0.73125810      -3.61806269       0.00000000
Si      -0.59947200      -1.61712459      -3.47995067       0.00000000
