10
Lattice="16.28999089631971 0.0 0.0 0.0 16.28999089631971 0.0 0.0 0.0 34.71893929493243" Properties=species:S:1:pos:R:3:initial_magmoms:R:1 pbc="T T T"
Si      -1.80155575      -0.70073064       1.37846213       0.00000000
Si       0.94224944       1.92764457       1.28571738       0.00000000
Si       1.97398473      -1.54797354       0.29071542       0.00000000
Si      -1.29027781      -0.75676824      -2.06754871       0.00000000
Si      -0.34727332      -2.02386960       2.78434040       0.00000000
Si       2.39594460       0.72003429       2.78377795       0.00000000
Si      -0.71853139       0.99852813      -3.56424830       0.00000000
Si       1.07722186      -3.40856847       1.45623607       0.00000000
Si       2.14876014       3.37388706      -0.32420564       0.00000000
Si       0.32108242       3.18647061      -2.46567101       0.00000000
