10
Lattice="16.28999089631971 0.0 0.0 0.0 16.28999089631971 0.0 0.0 0.0 34.71893929493243" Properties=species:S:1:pos:R:3:initial_magmoms:R:1 pbc="T T T"
Si       0.95418838       0.11580561       2.16368551       0.00000000
Si      -1.92352876      -1.22067486      -0.68556056       0.00000000
Si       2.04548806      -0.54069768      -1.16485578       0.00000000
Si      -0.94331155       2.23466220      -0.36128548       0.00000000
Si       1.91875186       2.32189515       2.01168590       0.00000000
Si      -2.20637203      -0.38266839      -2.85094729       0.00000000
Si       0.60141214       3.68220789       0.58921545       0.00000000
Si       1.82036026       0.11997585      -3.37450919       0.00000000
Si      -0.62266244      -0.59854347       3.76770140       0.00000000
Si      -0.84531254       2.82217734      -2.69172615       0.00000000
