10
Lattice="16.28999089631971 0.0 0.0 0.0 16.28999089631971 0.0 0.0 0.0 34.71893929493243" Properties=species:S:1:pos:R:3:initial_magmoms:R:1 pbc="T T T"
Si       0.94814316       1.73417738      -1.41115208       0.00000000
Si      -1.83018248      -1.02428262      -1.42576876       0.00000000
Si       1.72375893      -1.96934697      -0.05898751       0.00000000
Si      -1.13207844       1.35819504       2.08858840       0.00000000
Si      -0.67508203      -0.56237967       3.34135259       0.00000000
Si       2.13188859       0.27961785      -2.90441449       0.00000000
Si      -1.63913564      -2.39013396       2.25305211       0.00000000
Si       2.77606035       2.49063904       0.06732006       0.00000000
Si      -0.58314942      -2.44033974      -2.89736654       0.00000000
Si      -2.69500850      -2.77751016       0.03138594       0.00000000
