10
Lattice="10.86 0.0 0.0 0.0 10.86 0.0 0.0 0.0 10.86" Properties=species:S:1:pos:R:3:initial_magmoms:R:1 pbc="T T T"
Si      -1.20930444       1.09274406       1.51369938       0.00000000
Si       1.19885712      -1.46472078       1.52978304       0.00000000
Si      -1.44518364      -1.72568658      -1.26295284       0.00000000
Si       0.03268860       2.68732872      -2.55436974       0.00000000
Si      -2.77633728       2.47205094       0.15613422       0.00000000
Si      -2.77633728      -0.24294906      -2.55886578       0.00000000
Si      -0.06133728       2.47205094       2.87113422       0.00000000
Si      -0.06133728      -2.95794906      -2.55886578       0.00000000
Si       2.65366272      -0.24294906       2.87113422       0.00000000
Si       2.65366272      -2.95794906       0.15613422       0.00000000
