10
Lattice="10.86 0.0 0.0 0.0 10.86 0.0 0.0 0.0 10.86" Properties=species:S:1:pos:R:3:initial_magmoms:R:1 pbc="T T T"
Si      -1.24677144      -1.22045766       1.27328070       0.00000000
Si       1.46822856      -1.22045766      -1.44171930       0.00000000
Si       1.46822856       1.49454234       1.27328070       0.00000000
Si      -2.60427144      -2.57795766      -0.08421930       0.00000000
Si       0.11072856      -2.57795766       2.63078070       0.00000000
Si      -2.70157704       0.27277062       2.64692952       0.00000000
Si       0.11072856      -2.57795766      -2.79921930       0.00000000
Si       2.82572856      -2.57795766      -0.08421930       0.00000000
Si      -2.58363744       0.09863052      -2.84376702       0.00000000
Si       2.82572856       0.13704234       2.63078070       0.00000000
