10
Lattice="10.86 0.0 0.0 0.0 10.86 0.0 0.0 0.0 10.86" Properties=species:S:1:pos:R:3:initial_magmoms:R:1 pbc="T T T"
Si       1.24925838      -1.11085854      -1.40480616       0.00000000
Si      -1.46574162      -1.11085854       1.31019384       0.00000000
Si      -1.46574162       1.60414146      -1.40480616       0.00000000
Si       1.34328426       1.81941924       1.31468988       0.00000000
Si       2.62739238      -2.50677036      -0.09185388       0.00000000
Si      -0.13458798      -2.59359606       2.60610678       0.00000000
Si      -0.10824162      -2.46835854      -2.76230616       0.00000000
Si      -2.82324162      -2.46835854      -0.04730616       0.00000000
Si       2.60675838       0.24664146      -2.76230616       0.00000000
Si      -2.82324162       0.24664146       2.66769384       0.00000000
