10
Lattice="16.28999089631971 0.0 0.0 0.0 16.28999089631971 0.0 0.0 0.0 34.54679606040008" Properties=species:S:1:pos:R:3:initial_magmoms:R:1 pbc="T T T"
Si      -1.05472863      -1.64688953       1.28917625       0.00000000
Si       1.71960498       1.18541760       1.24355718       0.00000000
Si       0.50808510      -1.18047425      -2.13647702       0.00000000
Si      -1.58123772       2.01980117      -0.09776580       0.00000000
Si      -1.29599982       2.03418524      -2.43444330       0.00000000
Si      -2.23756182      -0.08219758       2.63790465       0.00000000
Si       2.87940411      -1.26075137      -2.10303570       0.00000000
Si       0.50458275       2.63937503       2.66132740       0.00000000
Si      -0.05131350       0.42919019      -3.78463648       0.00000000
Si       0.50689593      -2.78815064       2.63341011       0.00000000
