10
Lattice="16.28999089631971 0.0 0.0 0.0 16.28999089631971 0.0 0.0 0.0 34.54679606040008" Properties=species:S:1:pos:R:3:initial_magmoms:R:1 pbc="T T T"
Si      -1.35355239       1.35597960      -1.35817350       0.00000000
Si      -1.35602847      -1.35787901       1.35599705       0.00000000
Si       1.35884664       1.35760860       1.35568613       0.00000000
Si       1.35765747      -1.35800119      -1.36497922       0.00000000
Si      -2.70617625      -0.00439830      -2.71248121       0.00000000
Si      -2.71409319       2.71239903      -0.00110550       0.00000000
Si      -2.71352304      -0.00024435       2.71327233       0.00000000
Si       0.00074934       2.71511946       2.71344507       0.00000000
Si      -2.71287144      -2.71625765      -0.00152006       0.00000000
Si       0.00144981      -2.71552680       2.71372144       0.00000000
