10
Lattice="16.28999089631971 0.0 0.0 0.0 16.28999089631971 0.0 0.0 0.0 34.54679606040008" Properties=species:S:1:pos:R:3:initial_magmoms:R:1 pbc="T T T"
Si       1.35703845      -1.35329501      -1.36100634       0.00000000
Si       1.37955123       1.33615467       1.36028086       0.00000000
Si      -1.36156707       1.36037790      -1.36066087       0.00000000
Si      -1.36153449      -1.35001746       1.38435999       0.00000000
Si       2.71412577      -2.71093629      -0.00176189       0.00000000
Si      -2.71873584      -2.70877355       0.00155461       0.00000000
Si      -0.00208512      -2.71181268      -2.71797070       0.00000000
Si       2.71358820       0.00337203      -2.71810889       0.00000000
Si       2.71554300       2.71647153      -0.00196917       0.00000000
Si      -2.63520072       0.16720056       2.79224635       0.00000000
