10
Lattice="16.28999089631971 0.0 0.0 0.0 16.28999089631971 0.0 0.0 0.0 34.54679606040008" Properties=species:S:1:pos:R:3:initial_magmoms:R:1 pbc="T T T"
Si      -1.35718506      -1.35534439      -1.35658435       0.00000000
Si       1.35653346      -1.35275811       1.36311369       0.00000000
Si       1.35821133       1.35948521      -1.35686072       0.00000000
Si      -1.35480672       1.35989246       1.36321733       0.00000000
Si       0.00105885      -2.71300569      -2.71392872       0.00000000
Si      -2.71404106      -2.71308714       0.00041456       0.00000000
Si      -2.71467474       0.00188312      -2.71385963       0.00000000
Si       2.71570590       0.00185054      -2.71413600       0.00000000
Si       2.71370223       2.71639334       0.00089822       0.00000000
Si       2.71660185      -2.71426002       0.00044911       0.00000000
