10
Lattice="16.28999089631971 0.0 0.0 0.0 16.28999089631971 0.0 0.0 0.0 34.54679606040008" Properties=species:S:1:pos:R:3:initial_magmoms:R:1 pbc="T T T"
Si       0.69069600       2.16569148       0.49844145       0.00000000
Si      -1.91601351      -0.78850721       1.20741120       0.00000000
Si       2.05153002      -1.22553533       0.20658996       0.00000000
Si       0.36344619       0.22078766      -2.40065820       0.00000000
Si      -1.18742697      -0.12020996       3.40717967       0.00000000
Si       1.22279256       0.06736632       3.41170530       0.00000000
Si       1.47075894      -3.15923978      -1.01588365       0.00000000
Si       1.94540067       2.04558531       2.44166527       0.00000000
Si       2.66248647       1.18419943      -2.46339522       0.00000000
Si      -2.14847181      -3.08642348       0.68810347       0.00000000
