10
Lattice="16.28999089631971 0.0 0.0 0.0 16.28999089631971 0.0 0.0 0.0 34.54679606040008" Properties=species:S:1:pos:R:3:initial_magmoms:R:1 pbc="T T T"
Si       1.34477208      -1.28687742       1.44328649       0.00000000
Si      -1.72371006      -1.09786455      -1.21756174       0.00000000
Si       1.75721859       0.71110737      -1.50818065       0.00000000
Si      -1.34759025       1.44184419       1.41778403       0.00000000
Si       2.71881729      -2.58701490       0.02972408       0.00000000
Si      -3.53507661       0.53768403      -1.33872852       0.00000000
Si      -2.79160101       2.61534321      -0.10531597       0.00000000
Si       0.00076563      -2.63780712       2.80804461       0.00000000
Si       0.13124853      -0.17166402      -3.87456841       0.00000000
Si      -2.75506254      -2.74512564       0.10001303       0.00000000
