10
Lattice="16.28999089631971 0.0 0.0 0.0 16.28999089631971 0.0 0.0 0.0 34.54679606040008" Properties=species:S:1:pos:R:3:initial_magmoms:R:1 pbc="T T T"
Si      -0.63118863      -1.80892305       1.35261146       0.00000000
Si       1.19953044      -1.48470318      -1.47511447       0.00000000
Si      -1.75904307       1.13355594      -1.25508580       0.00000000
Si       1.62186498       1.23613407       1.39586407       0.00000000
Si      -1.57517784       3.09549096       0.79105298       0.00000000
Si       2.67413382      -2.42647695       0.24669881       0.00000000
Si      -0.51150600       2.37658068      -2.87229132       0.00000000
Si       3.52048077      -0.41746383       1.34411295       0.00000000
Si       2.48648931      -0.22449249      -2.96622411       0.00000000
Si      -2.32143903      -1.20006801       2.88877015       0.00000000
