10
Lattice="16.28999089631971 0.0 0.0 0.0 16.28999089631971 0.0 0.0 0.0 34.54679606040008" Properties=species:S:1:pos:R:3:initial_magmoms:R:1 pbc="T T T"
Si       1.43158149       1.22543154       1.40228978       0.00000000
Si      -1.92881745      -0.79210125       1.13987217       0.00000000
Si      -0.51640929       1.73154555      -1.55861412       0.00000000
Si       1.23308784      -1.90236249      -0.78441999       0.00000000
Si      -1.06233606      -2.31681267       2.69226787       0.00000000
Si       2.53607607       2.73329910      -0.09227454       0.00000000
Si       0.20263131       0.68984892      -3.67595389       0.00000000
Si       0.07584624       2.21296392       3.10423864       0.00000000
Si      -0.32720094      -3.08109060      -2.26692748       0.00000000
Si       0.52538508       3.76750233      -0.78704555       0.00000000
