10
Lattice="16.28999089631971 0.0 0.0 0.0 16.28999089631971 0.0 0.0 0.0 34.54679606040008" Properties=species:S:1:pos:R:3:initial_magmoms:R:1 pbc="T T T"
Si      -1.11246039      -1.20715416      -1.61278353       0.00000000
Si      -1.42610805       1.80377541       0.46562198       0.00000000
Si       0.04228884      -1.86649191       1.48499486       0.00000000
Si       2.15754534       0.49158333      -0.96717264       0.00000000
Si       2.10774681      -2.75906988       0.63925427       0.00000000
Si       2.92876281      -1.68684579      -1.34411295       0.00000000
Si       3.41964567       1.46249991       0.73456894       0.00000000
Si      -0.99541674      -0.05919786      -3.69647470       0.00000000
Si      -3.38627072      -1.52106246      -0.94302442       0.00000000
Si       0.45247104      -0.96299964       3.72932872       0.00000000
