10
Lattice="16.28999089631971 0.0 0.0 0.0 16.28999089631971 0.0 0.0 0.0 34.54679606040008" Properties=species:S:1:pos:R:3:initial_magmoms:R:1 pbc="T T T"
Si      -1.26210033      -0.97091658      -1.70174158       0.00000000
Si      -0.49186026       0.26712342       2.27200586       0.00000000
Si       2.19647844      -0.87519654      -0.19805689       0.00000000
Si      -0.12645927       2.33241849      -0.68153957       0.00000000
Si       1.18846953       1.92036294      -2.58434362       0.00000000
Si       2.83670802       0.29877489      -2.12255634       0.00000000
Si      -0.52875711       0.47931696      -3.50473987       0.00000000
Si       1.61116245       1.07114895       3.02899568       0.00000000
Si      -1.75591539       2.20760451       2.23580080       0.00000000
Si       3.05502660      -0.42336081       1.90795152       0.00000000
