10
Lattice="16.28999089631971 0.0 0.0 0.0 16.28999089631971 0.0 0.0 0.0 34.54679606040008" Properties=species:S:1:pos:R:3:initial_magmoms:R:1 pbc="T T T"
Si       1.35716877       1.35738054      -1.35686072       0.00000000
Si      -1.35742941       1.35728280       1.35741347       0.00000000
Si       1.35731538      -1.35757602       1.35765530       0.00000000
Si      -1.36042677      -1.35713619      -1.35803531       0.00000000
Si      -2.71086125      -0.00128691      -2.71513786       0.00000000
Si      -2.71378042       0.00068418       2.71382508       0.00000000
Si       0.00052128      -2.71414206       2.71475785       0.00000000
Si       0.00420282       2.71065600      -2.71835071       0.00000000
Si      -0.00087966       2.71433754       2.71479239       0.00000000
Si       2.71498914       0.00135207       2.71420510       0.00000000
