10
Lattice="16.28999089631971 0.0 0.0 0.0 16.28999089631971 0.0 0.0 0.0 34.54679606040008" Properties=species:S:1:pos:R:3:initial_magmoms:R:1 pbc="T T T"
Si       1.44407592      -1.23769791      -1.45086260       0.00000000
Si      -1.29098250      -1.74602736       1.03982460       0.00000000
Si      -1.47654189       1.58716728      -1.05509429       0.00000000
Si       2.36942937       0.33599754       0.66720265       0.00000000
Si      -0.22731066      -2.46493764      -2.62351971       0.00000000
Si       3.07382526      -2.01865680       0.25191538       0.00000000
Si       2.78076816       0.36136107      -2.61813040       0.00000000
Si      -2.82677112       0.26956692      -2.60704087       0.00000000
Si      -2.44058409       2.91312441       0.76120453       0.00000000
Si      -0.15019380       2.86857126      -2.65108806       0.00000000
