10
Lattice="16.28999089631971 0.0 0.0 0.0 16.28999089631971 0.0 0.0 0.0 34.54679606040008" Properties=species:S:1:pos:R:3:initial_magmoms:R:1 pbc="T T T"
Si       1.35355239      -1.35858600       1.35907172       0.00000000
Si      -1.35927018       1.35672195       1.35817350       0.00000000
Si       1.35000117       1.34085940      -1.39328688       0.00000000
Si      -1.35026181      -1.35894438      -1.38070493       0.00000000
Si      -0.13755276       2.61462386      -2.77055786       0.00000000
Si       2.71300176      -2.71318095      -0.00024183       0.00000000
Si       2.71125873       2.71497841      -0.00528566       0.00000000
Si       2.71205694       0.00024435       2.71541423       0.00000000
Si      -2.71500543       2.71378109      -0.00252192       0.00000000
Si      -0.00215028      -2.71480995       2.71575970       0.00000000
