10
Lattice="16.28999089631971 0.0 0.0 0.0 16.28999089631971 0.0 0.0 0.0 34.54679606040008" Properties=species:S:1:pos:R:3:initial_magmoms:R:1 pbc="T T T"
Si      -1.35653346       1.35275811      -1.36311369       0.00000000
Si       1.36006839      -1.36150191      -1.36266459       0.00000000
Si       1.35720135       1.35875609       1.38280538       0.00000000
Si      -1.37191122      -1.35106002       1.38715828       0.00000000
Si       2.58411528      -0.22239108       2.79055356       0.00000000
Si      -2.71134018       2.71265057       0.00010364       0.00000000
Si       2.71873584       2.70877355      -0.00155461       0.00000000
Si      -2.71552671      -2.71524978       0.00006909       0.00000000
Si       2.71616202      -2.71528236      -0.00798031       0.00000000
Si       0.00167787       2.71224332      -2.71997441       0.00000000
