10
Lattice="16.28999089631971 0.0 0.0 0.0 16.28999089631971 0.0 0.0 0.0 34.54679606040008" Properties=species:S:1:pos:R:3:initial_magmoms:R:1 pbc="T T T"
Si       1.44026406      -1.24164009      -1.37945434       0.00000000
Si      -1.30214115       1.49809356      -1.35257692       0.00000000
Si      -1.32634809      -1.28140398       1.59599378       0.00000000
Si       1.67938497       0.82606590       1.59575195       0.00000000
Si      -2.67657732      -2.59900434       0.04404719       0.00000000
Si       2.65388535       2.62676250       0.05081837       0.00000000
Si       0.07683993      -2.58569541      -2.74394990       0.00000000
Si      -2.64575664       0.13390380      -2.73966610       0.00000000
Si       0.16037505       0.91626363       3.71557909       0.00000000
Si       2.93096196      -2.50721019       0.03295766       0.00000000
