10
Lattice="16.28999089631971 0.0 0.0 0.0 16.28999089631971 0.0 0.0 0.0 34.54679606040008" Properties=species:S:1:pos:R:3:initial_magmoms:R:1 pbc="T T T"
Si       0.28523790       0.01438407      -2.33667750       0.00000000
Si      -1.95734287      -0.69891430       1.24370405       0.00000000
Si       0.68261616       1.87263324       1.40536933       0.00000000
Si       1.58123772      -2.01980117       0.09776580       0.00000000
Si       1.89703566       1.78799040      -1.69206847       0.00000000
Si      -0.65632410      -2.10199875       2.73567045       0.00000000
Si       2.08582047       0.61957386       2.75909319       0.00000000
Si       3.30084270      -0.83438357       1.34132298       0.00000000
Si       1.71396864       3.51989433       0.08779455       0.00000000
Si       0.52650909      -3.66669071       1.38694205       0.00000000
