10
Lattice="16.28999089631971 0.0 0.0 0.0 16.28999089631971 0.0 0.0 0.0 34.54679606040008" Properties=species:S:1:pos:R:3:initial_magmoms:R:1 pbc="T T T"
Si      -2.08174797       0.01829367       1.06977668       0.00000000
Si       1.34244261       1.71686826       0.99605378       0.00000000
Si       0.56285208      -2.29281750       0.59192513       0.00000000
Si       0.37802574       0.27225477      -2.39295426       0.00000000
Si      -1.06999236      -0.57567231       3.15316319       0.00000000
Si       0.78304401       3.32653270      -0.65210569       0.00000000
Si      -3.20795060      -1.60451613      -0.24023855       0.00000000
Si       2.75753862       0.52452171      -2.34255046       0.00000000
Si      -1.60521660      -3.35601693      -0.10243131       0.00000000
Si       0.78250644      -2.23850664       2.99969998       0.00000000
