10
Lattice="16.28999089631971 0.0 0.0 0.0 16.28999089631971 0.0 0.0 0.0 34.54679606040008" Properties=species:S:1:pos:R:3:initial_magmoms:R:1 pbc="T T T"
Si       1.41538923      -1.18916023      -1.48672220       0.00000000
Si       1.63178559       0.87873147       1.50289011       0.00000000
Si      -1.27526265       1.49574780      -1.48319842       0.00000000
Si      -0.78625314      -2.09173048       1.09838145       0.00000000
Si      -0.04049694      -0.17658360       3.24197679       0.00000000
Si       2.83897233      -2.39777837      -0.04021249       0.00000000
Si       2.65194684       2.68921836      -0.12882507       0.00000000
Si       3.51769518      -0.54001350       1.31015343       0.00000000
Si       0.05931189      -2.55134316      -2.84524117       0.00000000
Si       1.10791548      -3.56399855       1.01415631       0.00000000
