10
Lattice="16.28999089631971 0.0 0.0 0.0 16.28999089631971 0.0 0.0 0.0 34.54679606040008" Properties=species:S:1:pos:R:3:initial_magmoms:R:1 pbc="T T T"
Si       0.53177076      -1.68324570       1.55674859       0.00000000
Si       2.15837613       0.41632353      -0.92799655       0.00000000
Si      -1.23308784       1.90236249       0.78441999       0.00000000
Si      -1.56028878      -1.17872811      -1.48250749       0.00000000
Si       0.86815926       0.93861351      -2.94328503       0.00000000
Si      -1.60204005      -2.26473354       2.21462360       0.00000000
Si      -2.85674472      -2.14462737       0.27139978       0.00000000
Si       1.82345373      -3.08867197       0.18185444       0.00000000
Si       2.90514231      -1.78258212      -1.51214866       0.00000000
Si       0.19849365       3.12779403       2.18670977       0.00000000
