10
Lattice="16.28999089631971 0.0 0.0 0.0 16.28999089631971 0.0 0.0 0.0 34.54679606040008" Properties=species:S:1:pos:R:3:initial_magmoms:R:1 pbc="T T T"
Si       1.69098345      -0.83308689       1.38370360       0.00000000
Si      -1.43158149      -1.22543154      -1.40228978       0.00000000
Si      -1.35573525       0.98753238       1.70194886       0.00000000
Si       1.10449458       1.50786756      -1.49456433       0.00000000
Si      -0.90619641       2.54207079      -2.18933533       0.00000000
Si      -1.94799078       0.50611401      -2.96090390       0.00000000
Si       0.36149139       2.42857836       2.62234511       0.00000000
Si       2.00972988       0.80699031       3.08413240       0.00000000
Si      -0.19849365      -3.12779403      -2.18670977       0.00000000
Si       3.75738624      -0.73109520       0.25032622       0.00000000
