10
Lattice="16.28999089631971 0.0 0.0 0.0 16.28999089631971 0.0 0.0 0.0 34.54679606040008" Properties=species:S:1:pos:R:3:initial_magmoms:R:1 pbc="T T T"
Si      -1.69098345       0.83308689      -1.38370360       0.00000000
Si      -0.72863541      -1.89589536       1.16826966       0.00000000
Si       2.06640279       0.10199169      -1.13337737       0.00000000
Si       0.31874643       1.64007720       1.70042880       0.00000000
Si      -3.04671870       1.82061927       0.31824526       0.00000000
Si       2.48593545       2.50255125      -0.79195120       0.00000000
Si       0.41637240      -1.77264522       3.14845857       0.00000000
Si      -0.32148315       0.46610577       3.62492824       0.00000000
Si      -1.32949206       3.26166525       1.23864152       0.00000000
Si      -0.58648887       2.34095445      -2.87826792       0.00000000
