10
Lattice="16.28999089631971 0.0 0.0 0.0 16.28999089631971 0.0 0.0 0.0 34.54679606040008" Properties=species:S:1:pos:R:3:initial_magmoms:R:1 pbc="T T T"
Si      -0.85854816      -0.45183573      -2.10600841       0.00000000
Si       2.31603075      -0.05664033      -0.15691164       0.00000000
Si      -1.44386415       1.49450976       1.12104416       0.00000000
Si      -0.07902279      -2.10439107       1.61012342       0.00000000
Si      -3.05502660       0.42336081      -1.90795152       0.00000000
Si      -3.54688686       0.69048423       0.36405434       0.00000000
Si       2.98162386       2.18344644       0.06650262       0.00000000
Si      -0.12069261      -2.69058672      -2.58247809       0.00000000
Si       3.05628093      -1.57016052       1.54676456       0.00000000
Si      -1.03216698       3.71889297       0.29782810       0.00000000
