10
Lattice="16.28999089631971 0.0 0.0 0.0 16.28999089631971 0.0 0.0 0.0 34.54679606040008" Properties=species:S:1:pos:R:3:initial_magmoms:R:1 pbc="T T T"
Si      -1.14500781      -0.12325014      -1.98018891       0.00000000
Si      -0.73785555       2.23875099       0.47646968       0.00000000
Si      -0.55747638      -1.89907191       1.37437596       0.00000000
Si       2.29001562      -0.00065160      -0.78701100       0.00000000
Si       0.97189398      -1.33547049       3.10765878       0.00000000
Si      -0.41637240       1.77264522      -3.14845857       0.00000000
Si      -3.42521685      -0.03539817      -1.40415531       0.00000000
Si      -0.09762597       3.41272242      -1.44802977       0.00000000
Si       0.12069261       2.69058672       2.58247809       0.00000000
Si       3.09081573      -2.10727440      -0.05714043       0.00000000
