10
Lattice="16.28999089631971 0.0 0.0 0.0 16.28999089631971 0.0 0.0 0.0 34.54679606040008" Properties=species:S:1:pos:R:3:initial_magmoms:R:1 pbc="T T T"
Si       1.33516098       1.34591238      -1.36359735       0.00000000
Si      -1.23426072       1.42325730       1.41552121       0.00000000
Si       1.49696955      -1.21077054       1.37071399       0.00000000
Si      -1.38370518      -1.36798533      -1.35876080       0.00000000
Si       0.02783961      -2.44626930       2.62711257       0.00000000
Si      -2.57095296      -0.17580168       2.58278901       0.00000000
Si       2.67059889       2.71156824       0.00635661       0.00000000
Si       2.69192250      -0.01076769      -2.71952531       0.00000000
Si      -2.72495862       2.68882740       0.00310921       0.00000000
Si       2.69448003      -2.72683197       0.01039859       0.00000000
