10
Lattice="16.28999089631971 0.0 0.0 0.0 16.28999089631971 0.0 0.0 0.0 34.54679606040008" Properties=species:S:1:pos:R:3:initial_magmoms:R:1 pbc="T T T"
Si       1.33974173      -1.17499770       1.53413770       0.00000000
Si       1.89027857       0.66028257      -1.24882043       0.00000000
Si      -1.30199226      -1.26627057      -1.56288553       0.00000000
Si      -1.34452154       1.53627732       1.52651322       0.00000000
Si      -1.97233197       0.52100307      -2.96997732       0.00000000
Si      -2.70761370      -2.57422725      -0.04139054       0.00000000
Si       2.67029264      -2.62252710       0.18992112       0.00000000
Si       2.63375417       2.73794175      -0.01540788       0.00000000
Si      -0.00655347      -2.51178768       2.89919638       0.00000000
Si       1.37362493      -0.39224691      -3.60456777       0.00000000
