10
Lattice="16.28999089631971 0.0 0.0 0.0 16.28999089631971 0.0 0.0 0.0 34.54679606040008" Properties=species:S:1:pos:R:3:initial_magmoms:R:1 pbc="T T T"
Si       1.33235910       1.57361400       1.11185471       0.00000000
Si      -2.01069099       1.03420323      -0.69477100       0.00000000
Si      -1.10449458      -1.50786756       1.49456433       0.00000000
Si       1.71141111      -0.76121541      -1.59661562       0.00000000
Si      -3.05248536      -1.00175355      -1.46633958       0.00000000
Si       2.34672111       2.71212210      -0.71819374       0.00000000
Si       3.07242432       0.16159680       2.08631673       0.00000000
Si      -2.53607607      -2.73329910       0.09227454       0.00000000
Si       0.58648887      -2.34095445       2.87826792       0.00000000
Si       2.60944623      -2.74116717      -0.63244855       0.00000000
