10
Lattice="16.28999089631971 0.0 0.0 0.0 16.28999089631971 0.0 0.0 0.0 34.54679606040008" Properties=species:S:1:pos:R:3:initial_magmoms:R:1 pbc="T T T"
Si      -1.34470692      -1.35096228       1.36906611       0.00000000
Si       1.39813812      -1.32243849      -1.37733662       0.00000000
Si       1.36800162       1.36590021       1.36530051       0.00000000
Si      -1.36153449       1.20094767      -1.56834941       0.00000000
Si       0.51691428       2.25118026      -2.71089348       0.00000000
Si       2.33245107       0.51960213      -2.75701348       0.00000000
Si      -2.70770751       2.70307807      -0.02397894       0.00000000
Si      -2.70915732      -2.71148679      -0.03624306       0.00000000
Si       2.72342736      -2.70477531       0.01823035       0.00000000
Si      -2.70415629       0.00363267       2.72837965       0.00000000
