10
Lattice="16.28999089631971 0.0 0.0 0.0 16.28999089631971 0.0 0.0 0.0 34.54679606040008" Properties=species:S:1:pos:R:3:initial_magmoms:R:1 pbc="T T T"
Si       1.09991709       1.39420246      -1.45277101       0.00000000
Si       1.34863281      -1.33150142       1.34674887       0.00000000
Si      -1.38023541       1.39058608       1.32850124       0.00000000
Si      -0.87661377      -1.79942665      -1.38398830       0.00000000
Si      -0.54915219       0.36819310      -3.00109018       0.00000000
Si       1.96327080      -0.22940392      -2.90491185       0.00000000
Si      -0.02552643      -2.68470670       2.69220568       0.00000000
Si       2.66895360      -2.71512013      -0.01637519       0.00000000
Si       2.69081478       0.02473311       2.69617857       0.00000000
Si       2.70506853       2.68155229      -0.24161006       0.00000000
