10
Lattice="16.28999089631971 0.0 0.0 0.0 16.28999089631971 0.0 0.0 0.0 34.54679606040008" Properties=species:S:1:pos:R:3:initial_magmoms:R:1 pbc="T T T"
Si       1.35537687       1.35725819       1.35603160       0.00000000
Si       1.35718506      -1.35700834      -1.35737892       0.00000000
Si      -1.35796698      -1.35705721       1.35675708       0.00000000
Si      -1.35698958       1.35726797      -1.35782803       0.00000000
Si       0.00000000       2.71562916       2.71012857       0.00000000
Si       2.71414206      -0.00127309      -2.71372144       0.00000000
Si      -2.71414206       2.71460289      -0.00003455       0.00000000
Si       2.71486175       2.71439112       0.00031092       0.00000000
Si      -2.71461447      -0.00072554      -2.71499967       0.00000000
Si       0.00100998       2.71543368      -2.71430874       0.00000000
