10
Lattice="16.28999089631971 0.0 0.0 0.0 16.28999089631971 0.0 0.0 0.0 34.54679606040008" Properties=species:S:1:pos:R:3:initial_magmoms:R:1 pbc="T T T"
Si       1.88590959      -1.41874497      -0.19273668       0.00000000
Si      -1.63178559      -0.87873147      -1.50289011       0.00000000
Si       0.86063328       1.97517879       1.18077560       0.00000000
Si      -1.67228253      -1.05531507       1.73908669       0.00000000
Si       1.02016125       1.81048689      -1.63171518       0.00000000
Si      -1.38800574       2.90486538       1.33288523       0.00000000
Si      -0.21639636      -2.06789170      -2.98961231       0.00000000
Si       2.70909216      -1.50431634       2.06973426       0.00000000
Si       1.20718674      -3.27650984      -1.54310260       0.00000000
Si      -2.41803873      -2.97046195      -0.40450866       0.00000000
