10
Lattice="16.28999089631971 0.0 0.0 0.0 16.28999089631971 0.0 0.0 0.0 34.54679606040008" Properties=species:S:1:pos:R:3:initial_magmoms:R:1 pbc="T T T"
Si       1.41211887      -1.93501484       0.10885702       0.00000000
Si      -0.82318257       0.08557137      -2.26247094       0.00000000
Si       1.45489152       1.92107970       0.01001858       0.00000000
Si      -1.42711803       0.26189433       2.12666741       0.00000000
Si      -1.24323651      -2.01395618       2.59567497       0.00000000
Si       3.02799239       1.01416653       1.49169694       0.00000000
Si      -2.70909216       1.50431634      -2.06973426       0.00000000
Si       0.90389952      -2.94536951       2.16950546       0.00000000
Si       0.01099575       3.73723551       0.75743893       0.00000000
Si       1.77514803       2.53319274      -2.33104637       0.00000000
