10
Lattice="16.28999089631971 0.0 0.0 0.0 16.28999089631971 0.0 0.0 0.0 34.54679606040008" Properties=species:S:1:pos:R:3:initial_magmoms:R:1 pbc="T T T"
Si      -2.06211852      -0.06603477       1.12529342       0.00000000
Si       1.31678586       1.66657451       1.02870052       0.00000000
Si       0.96317883      -2.01813293       0.78055075       0.00000000
Si      -0.28541709       0.73745807      -2.28382087       0.00000000
Si       3.19787361       0.59876501       0.14378385       0.00000000
Si      -3.32633655      -0.12955437      -0.84943710       0.00000000
Si      -2.43818946       1.71156749      -2.04472236       0.00000000
Si       0.33332598      -2.04872555       3.06464799       0.00000000
Si       3.29160627      -1.68713642       0.55717104       0.00000000
Si       0.51598575       3.77319731       0.29882995       0.00000000
