10
Lattice="16.28999089631971 0.0 0.0 0.0 16.28999089631971 0.0 0.0 0.0 34.54679606040008" Properties=species:S:1:pos:R:3:initial_magmoms:R:1 pbc="T T T"
Si       0.55993032      -1.20869945      -1.92308302       0.00000000
Si      -1.15908237      -1.46696111       1.46911165       0.00000000
Si       1.61497987       1.30986391       1.31352316       0.00000000
Si      -1.86476517       1.01875510      -1.41942500       0.00000000
Si      -1.47747042      -2.68667486      -1.91448087       0.00000000
Si      -2.88911295      -2.28284576       0.05537855       0.00000000
Si      -2.47940316      -0.08334240       2.83223571       0.00000000
Si      -2.72811888       2.64236148       0.03271583       0.00000000
Si       0.22677309       2.63620386       2.79304235       0.00000000
Si       0.50385689       0.23499596      -3.85780833       0.00000000
