10
Lattice="16.28999089631971 0.0 0.0 0.0 16.28999089631971 0.0 0.0 0.0 34.54679606040008" Properties=species:S:1:pos:R:3:initial_magmoms:R:1 pbc="T T T"
Si      -1.09991709      -1.39420246       1.45277101       0.00000000
Si       0.86335371      -1.62360638      -1.45214084       0.00000000
Si       1.60515144       1.28734983       1.21116095       0.00000000
Si      -1.64906928      -1.02600936      -1.54831917       0.00000000
Si      -2.48015250      -0.00361638       2.78127225       0.00000000
Si      -1.97653086      -3.19362911       0.06878271       0.00000000
Si       2.72811888      -2.64236148      -0.03271583       0.00000000
Si       0.24412194       2.69578323       2.75540705       0.00000000
Si       0.24871572      -2.72570388       2.79951988       0.00000000
Si       3.01077288       2.59530651      -0.31033404       0.00000000
