10
Lattice="16.28999089631971 0.0 0.0 0.0 16.28999089631971 0.0 0.0 0.0 34.54679606040008" Properties=species:S:1:pos:R:3:initial_magmoms:R:1 pbc="T T T"
Si       0.04087161       0.32191646       2.34994347       0.00000000
Si      -0.28103508       2.20358902      -0.85410092       0.00000000
Si      -1.30508964      -1.70241807      -1.17811550       0.00000000
Si       2.40949367      -0.46184268      -0.08843985       0.00000000
Si      -2.47155138       0.91951349       2.25376514       0.00000000
Si       2.46556710      -1.90553808       1.84628545       0.00000000
Si      -2.44055151       2.78468590      -0.04926376       0.00000000
Si      -0.24734736      -3.68121324      -0.41190168       0.00000000
Si      -0.32162976       2.01288199      -3.21406297       0.00000000
Si       0.42816636      -3.38351349       1.85488761       0.00000000
