10
Lattice="16.28999089631971 0.0 0.0 0.0 16.28999089631971 0.0 0.0 0.0 34.54679606040008" Properties=species:S:1:pos:R:3:initial_magmoms:R:1 pbc="T T T"
Si       1.35250329      -1.35578412       1.36131726       0.00000000
Si       1.37257294       1.33762077      -1.36774297       0.00000000
Si      -1.36115982       1.36166481       1.36021176       0.00000000
Si      -1.35154872      -1.36445040      -1.39140063       0.00000000
Si      -0.09855450       2.60758917      -2.64912581       0.00000000
Si       2.71054101      -2.71044423       0.00494019       0.00000000
Si       2.71086681       0.00201996       2.71797070       0.00000000
Si      -0.00392589      -2.71270854       2.71817798       0.00000000
Si       2.71508429       2.71585251       0.00269465       0.00000000
Si      -2.71790505      -2.71409319       0.00127823       0.00000000
