10
Lattice="16.28999089631971 0.0 0.0 0.0 16.28999089631971 0.0 0.0 0.0 34.54679606040008" Properties=species:S:1:pos:R:3:initial_magmoms:R:1 pbc="T T T"
Si       1.23007419      -1.36275624       1.40688451       0.00000000
Si      -1.47225762       1.17393885       1.37838339       0.00000000
Si      -1.35128808      -1.35128808      -1.34421659       0.00000000
Si       1.36329381       1.36469475      -1.33792907       0.00000000
Si       0.31333815       2.12015979       2.63129274       0.00000000
Si       1.99182132       0.39232836       2.74878646       0.00000000
Si      -0.60650928      -2.05529301       2.81736189       0.00000000
Si      -2.70658350       0.00553860      -2.69710442       0.00000000
Si       0.00408879      -2.70965905      -2.69831356       0.00000000
Si      -2.70881523      -2.70443974       0.02048626       0.00000000
