10
Lattice="16.28999089631971 0.0 0.0 0.0 16.28999089631971 0.0 0.0 0.0 34.54679606040008" Properties=species:S:1:pos:R:3:initial_magmoms:R:1 pbc="T T T"
Si      -0.89803512       1.97995176      -0.96416707       0.00000000
Si       0.04344543       0.50220441       2.37733910       0.00000000
Si       2.33906481      -0.70387461      -0.48344813       0.00000000
Si      -1.75405833      -1.47817089      -0.98769345       0.00000000
Si      -2.60944623       2.74116717       0.63244855       0.00000000
Si       2.46251043      -2.93309595       0.28501123       0.00000000
Si       0.77854797       3.66733512      -1.37244133       0.00000000
Si       0.46297809       2.90276397       2.71876528       0.00000000
Si       2.79604818      -0.60833376      -2.81470178       0.00000000
Si       1.50874722      -0.97813305       3.62337364       0.00000000
