10
Lattice="16.28999089631971 0.0 0.0 0.0 16.28999089631971 0.0 0.0 0.0 34.54679606040008" Properties=species:S:1:pos:R:3:initial_magmoms:R:1 pbc="T T T"
Si       1.75342302       1.08752040       1.11233836       0.00000000
Si       1.55520630      -1.33411842      -1.21190228       0.00000000
Si      -0.74025018       1.51352019      -1.70367620       0.00000000
Si      -3.13530372      -0.53423055       0.06335886       0.00000000
Si      -0.04592151       2.06570232       2.49580013       0.00000000
Si      -2.20507956      -2.45589669      -1.02158388       0.00000000
Si      -0.04556313      -3.03699357      -1.82642103       0.00000000
Si       2.42376273      -0.69975324       2.51943015       0.00000000
Si       3.34369910      -1.62812034       0.36522893       0.00000000
Si       0.18054207       0.55773702      -3.69329639       0.00000000
