10
Lattice="16.28999089631971 0.0 0.0 0.0 16.28999089631971 0.0 0.0 0.0 34.54679606040008" Properties=species:S:1:pos:R:3:initial_magmoms:R:1 pbc="T T T"
Si      -1.75342302      -1.08752040      -1.11233836       0.00000000
Si       0.67033971      -1.78727364       1.40709179       0.00000000
Si      -1.79934453       0.97818192       1.38346177       0.00000000
Si       1.97906137       0.83917935      -1.37105946       0.00000000
Si       1.59027608      -2.71564074      -0.74710943       0.00000000
Si      -0.19821672      -2.42163882      -2.32424064       0.00000000
Si       3.34595690      -0.91324998      -0.63459045       0.00000000
Si      -2.14032681       2.87451711      -0.07158100       0.00000000
Si       1.97233197      -0.52100307       2.96997732       0.00000000
Si      -2.49367320       0.42599979      -2.81601456       0.00000000
