10
Lattice="16.28999089631971 0.0 0.0 0.0 16.28999089631971 0.0 0.0 0.0 34.54679606040008" Properties=species:S:1:pos:R:3:initial_magmoms:R:1 pbc="T T T"
Si       1.35653346      -1.35780408      -1.36072996       0.00000000
Si      -1.36070370       1.35674523      -1.36066087       0.00000000
Si       1.35301482       1.35783666       1.36729386       0.00000000
Si      -1.35814617      -1.35931905       1.36926303       0.00000000
Si      -2.55565665       0.15674238       2.72957843       0.00000000
Si       2.62936890      -0.10251297       2.74436447       0.00000000
Si       2.71296918      -2.71370223      -0.00152006       0.00000000
Si       2.71466953       2.71319724      -0.00169279       0.00000000
Si      -2.71746522       2.71342530      -0.00473291       0.00000000
Si      -2.71379997      -2.71761183      -0.00183098       0.00000000
