10
Lattice="16.28999089631971 0.0 0.0 0.0 16.28999089631971 0.0 0.0 0.0 34.54679606040008" Properties=species:S:1:pos:R:3:initial_magmoms:R:1 pbc="T T T"
Si      -1.45420830       1.24279668      -1.35886444       0.00000000
Si      -1.01025693      -1.62310302       1.36069542       0.00000000
Si       1.28083383      -1.47844782      -1.35679163       0.00000000
Si       0.93372651       1.53455058       1.60045032       0.00000000
Si       2.57473224       2.68591149       0.34253167       0.00000000
Si      -2.62783764      -2.67954210       0.00549294       0.00000000
Si      -0.07745895       2.59493184      -2.71890346       0.00000000
Si       2.64248854      -0.12308724      -2.72577828       0.00000000
Si      -1.35728280      -0.74114613       3.55566188       0.00000000
Si       2.55718791      -2.93879745       0.02027898       0.00000000
