10
Lattice="16.28999089631971 0.0 0.0 0.0 16.28999089631971 0.0 0.0 0.0 34.54679606040008" Properties=species:S:1:pos:R:3:initial_magmoms:R:1 pbc="T T T"
Si      -1.64390535       0.09283671       1.66242730       0.00000000
Si      -0.06595821      -2.36672523      -0.39981029       0.00000000
Si      -1.05336027       1.09481832      -1.89112722       0.00000000
Si       2.14478117       0.86020974       0.76645565       0.00000000
Si       3.44210048       0.41679594      -1.14128859       0.00000000
Si      -0.62206623       1.28124108       3.38714251       0.00000000
Si       0.29187349       0.43214112      -3.67547023       0.00000000
Si      -3.38442669       0.74732004      -1.55042653       0.00000000
Si      -3.56024466       1.09415043       0.81668672       0.00000000
Si       1.09575078      -3.39749127       1.38691645       0.00000000
