10
Lattice="16.28999089631971 0.0 0.0 0.0 16.28999089631971 0.0 0.0 0.0 34.54679606040008" Properties=species:S:1:pos:R:3:initial_magmoms:R:1 pbc="T T T"
Si       1.91633931      -1.00131372       0.84574059       0.00000000
Si      -1.99137105      -1.20930444       0.12526675       0.00000000
Si      -0.35277624       1.98063594       1.29809659       0.00000000
Si       0.17581797      -0.34683039      -2.36711324       0.00000000
Si      -3.63960954       0.41228361      -0.33652053       0.00000000
Si       2.50688439       0.00066789      -2.70781394       0.00000000
Si       3.56024466      -1.09415043      -0.81668672       0.00000000
Si      -1.56424725       1.06518681      -3.34157526       0.00000000
Si      -2.64971511       1.96643106       1.98606187       0.00000000
Si       1.46377053      -2.94386364       2.00924278       0.00000000
