10
Lattice="16.28999089631971 0.0 0.0 0.0 16.28999089631971 0.0 0.0 0.0 34.54679606040008" Properties=species:S:1:pos:R:3:initial_magmoms:R:1 pbc="T T T"
Si       0.34551090       0.90073926      -2.15914141       0.00000000
Si      -2.01518703       1.12517524       0.61745523       0.00000000
Si       0.40948173      -2.30550741      -0.54210863       0.00000000
Si       2.03186799       0.65704086       1.16992790       0.00000000
Si       2.49264693      -0.03067407      -2.58531093       0.00000000
Si      -0.63710190      -0.81230085      -3.54515965       0.00000000
Si       3.49475464       1.00390365      -0.70181855       0.00000000
Si       1.37930688      -2.12462325      -2.72961298       0.00000000
Si      -1.31427720       2.85144137       2.10683754       0.00000000
Si       1.84086774      -3.42585216       1.09351035       0.00000000
