10
Lattice="16.28999089631971 0.0 0.0 0.0 16.28999089631971 0.0 0.0 0.0 34.54679606040008" Properties=species:S:1:pos:R:3:initial_magmoms:R:1 pbc="T T T"
Si      -1.78849280       0.29400192      -1.57713122       0.00000000
Si       0.71289275      -2.05822521      -1.17514447       0.00000000
Si       1.75568081       1.80239076       0.11251898       0.00000000
Si      -0.91993637       0.92836710       2.15420122       0.00000000
Si      -1.59027608       2.71564074       0.74710943       0.00000000
Si       2.65497026      -2.28613860       0.16496104       0.00000000
Si       0.38878529       3.55482009      -0.62395003       0.00000000
Si      -3.34369910       1.62812034      -0.36522893       0.00000000
Si      -0.98961491       1.48838472      -3.49883237       0.00000000
Si       1.74201350      -1.49341833      -3.27583267       0.00000000
