10
Lattice="16.28999089631971 0.0 0.0 0.0 16.28999089631971 0.0 0.0 0.0 34.54679606040008" Properties=species:S:1:pos:R:3:initial_magmoms:R:1 pbc="T T T"
Si       1.44401076      -1.17349902       1.52310000       0.00000000
Si       0.88330896       1.90123848      -1.23510535       0.00000000
Si      -1.27819485       1.50257331       1.54852645       0.00000000
Si      -0.74347560      -2.07765918      -1.23341255       0.00000000
Si      -2.63375417      -2.73794175       0.01540788       0.00000000
Si       2.79160101      -2.61534321       0.10531597       0.00000000
Si      -0.96918984       3.56407281      -1.08164213       0.00000000
Si       0.07504803      -2.53607607       2.90921496       0.00000000
Si      -2.69183616       2.84871375       0.29052144       0.00000000
Si      -2.63576435       0.17656731       2.91235872       0.00000000
