10
Lattice="16.28999089631971 0.0 0.0 0.0 16.28999089631971 0.0 0.0 0.0 34.54679606040008" Properties=species:S:1:pos:R:3:initial_magmoms:R:1 pbc="T T T"
Si      -1.30699415      -1.43430192      -1.18816137       0.00000000
Si      -1.31187835       1.40900355       1.27457712       0.00000000
Si       1.72264632       0.71535906      -1.37216358       0.00000000
Si       1.41364131      -1.34614044       1.25800501       0.00000000
Si       2.57226756       2.54148435      -0.10361972       0.00000000
Si      -2.66202613       0.04338027       2.62142271       0.00000000
Si       0.05607181      -2.67214644       2.62183728       0.00000000
Si       0.71089071       1.30932504      -3.45555008       0.00000000
Si       0.05079059       2.76542298       2.62435919       0.00000000
Si       2.77113588       0.03979647       2.61862442       0.00000000
