10
Lattice="16.28999089631971 0.0 0.0 0.0 16.28999089631971 0.0 0.0 0.0 34.54679606040008" Properties=species:S:1:pos:R:3:initial_magmoms:R:1 pbc="T T T"
Si      -1.29731931       0.44341380       1.90774424       0.00000000
Si       0.04450428      -2.35242261      -0.22524524       0.00000000
Si       2.09660445       1.04646960       0.33755693       0.00000000
Si      -1.16221005       1.09851615      -1.75535824       0.00000000
Si      -3.44210048      -0.41679594       1.14128859       0.00000000
Si      -1.85672280       3.28421061      -1.09807053       0.00000000
Si      -0.07253937      -3.50037891       1.85844593       0.00000000
Si       0.13405041       1.49978772      -3.66956273       0.00000000
Si      -0.38618703      -0.48944934       3.93685144       0.00000000
Si      -2.00489664      -3.30141285      -0.99636470       0.00000000
