10
Lattice="16.28999089631971 0.0 0.0 0.0 16.28999089631971 0.0 0.0 0.0 34.54679606040008" Properties=species:S:1:pos:R:3:initial_magmoms:R:1 pbc="T T T"
Si       0.07837119       1.62492750      -1.67334410       0.00000000
Si      -2.19106106       0.21390399       0.80255707       0.00000000
Si       1.93761405       0.14968881       1.36674111       0.00000000
Si       0.11057652      -2.26312083      -0.72151024       0.00000000
Si       1.02170880      -3.19598397       1.30759696       0.00000000
Si       1.93284108       2.91988476      -1.06262549       0.00000000
Si      -3.24717434       1.13909454      -1.26928454       0.00000000
Si       3.68701344      -0.46757187      -0.17180131       0.00000000
Si      -2.65627088      -1.84208949       1.89917663       0.00000000
Si      -2.05187930       1.52751330       2.76505801       0.00000000
