10
Lattice="16.28999089631971 0.0 0.0 0.0 16.28999089631971 0.0 0.0 0.0 34.54679606040008" Properties=species:S:1:pos:R:3:initial_magmoms:R:1 pbc="T T T"
Si      -1.35504781       1.35492075      -1.36276823       0.00000000
Si       1.35902583      -1.36093176      -1.36256094       0.00000000
Si       1.34361549       1.36418976       1.38708918       0.00000000
Si      -1.36729463      -1.34930070       1.38733101       0.00000000
Si       2.64575664      -0.13390380       2.73966610       0.00000000
Si      -2.71431215       2.71290834      -0.00262556       0.00000000
Si      -2.71171585      -2.71868697      -0.00345468       0.00000000
Si       2.71552671       2.71524978      -0.00006909       0.00000000
Si      -2.71279983      -0.00213399      -2.71928348       0.00000000
Si       0.00180819       2.71266350      -2.71976713       0.00000000
