10
Lattice="16.28999089631971 0.0 0.0 0.0 16.28999089631971 0.0 0.0 0.0 34.54679606040008" Properties=species:S:1:pos:R:3:initial_magmoms:R:1 pbc="T T T"
Si      -0.50821935      -1.01035467       2.06064844       0.00000000
Si      -1.41211887       1.93501484      -0.10885702       0.00000000
Si       1.01630052      -1.38440565      -1.75273268       0.00000000
Si       1.61587352       2.94918137       1.38283993       0.00000000
Si      -2.65535538      -0.07894134       2.48681796       0.00000000
Si      -2.23530144       2.02058621      -2.37132795       0.00000000
Si       0.04277265       3.85609454      -0.09883844       0.00000000
Si       2.80328420      -2.79318114      -0.37137827       0.00000000
Si       0.49388836       0.02422305       3.94414082       0.00000000
Si      -1.62155940      -3.10430385       1.91634640       0.00000000
