10
Lattice="16.28999089631971 0.0 0.0 0.0 16.28999089631971 0.0 0.0 0.0 34.54679606040008" Properties=species:S:1:pos:R:3:initial_magmoms:R:1 pbc="T T T"
Si       0.17176176      -1.76630841       1.57409110       0.00000000
Si      -0.72858654      -0.66829725      -2.19976847       0.00000000
Si       2.41021953       0.18757627       0.00452563       0.00000000
Si      -1.22311836       2.04164918       0.59790173       0.00000000
Si       1.18742697       0.12020996      -3.40717967       0.00000000
Si       0.61427961       3.23764469       1.49756990       0.00000000
Si      -1.68270813      -3.06126567       0.96337249       0.00000000
Si       3.13282764       2.16579527      -0.96551440       0.00000000
Si       3.29383800       0.45294249       2.13710055       0.00000000
Si      -2.95162908       0.06866217      -2.63958397       0.00000000
