10
Lattice="16.28999089631971 0.0 0.0 0.0 16.28999089631971 0.0 0.0 0.0 34.48637585096406" Properties=species:S:1:pos:R:3:initial_magmoms:R:1 pbc="T T T"
Si       0.73795329      -1.98478989      -0.97399926       0.00000000
Si      -2.17771236       0.83701278      -0.02545096       0.00000000
Si       1.34022717       0.17809857       1.91461568       0.00000000
Si       1.05406074       1.56118473      -1.46643049       0.00000000
Si      -1.65421692       2.80372077       1.34872843       0.00000000
Si       2.03825367       2.45661345       1.86347236       0.00000000
Si       3.17630565      -1.28010078       1.43777230       0.00000000
Si       3.35899800       1.00253547      -1.34721103       0.00000000
Si       3.37743828      -1.36720341      -1.00807182       0.00000000
Si       0.01024641      -3.91473135       0.12246119       0.00000000
