10
Lattice="16.28999089631971 0.0 0.0 0.0 16.28999089631971 0.0 0.0 0.0 34.48637585096406" Properties=species:S:1:pos:R:3:initial_magmoms:R:1 pbc="T T T"
Si       1.11788496      -1.31079114      -1.67790107       0.00000000
Si      -2.41740342      -0.39991950       0.24457751       0.00000000
Si       0.66459942      -0.37579401       2.39680446       0.00000000
Si       1.72864593       1.77280812      -1.31982883       0.00000000
Si      -0.91290789      -0.46341792      -3.06456453       0.00000000
Si      -2.15353800       1.66961097      -1.98293323       0.00000000
Si      -2.41634457       0.93136446       2.22478632       0.00000000
Si       3.29830146      -0.03675024      -1.39680246       0.00000000
Si      -1.45860660      -0.78975549       3.51181859       0.00000000
Si       2.84231178      -1.21280679       2.42225542       0.00000000
