10
Lattice="16.28999089631971 0.0 0.0 0.0 16.28999089631971 0.0 0.0 0.0 34.48637585096406" Properties=species:S:1:pos:R:3:initial_magmoms:R:1 pbc="T T T"
Si      -1.34446257      -1.36036161       1.38753942       0.00000000
Si       1.36950030       1.35718506       1.38105597       0.00000000
Si       1.51948233      -1.21368645      -1.38007656       0.00000000
Si      -1.33405326       1.33540533      -1.61365291       0.00000000
Si       2.41375446       0.60761700      -2.75922341       0.00000000
Si       0.62851707       2.37162852      -2.88158114       0.00000000
Si      -2.67726150       2.70035496       0.00682831       0.00000000
Si      -2.68807806      -2.69060301       0.00632825       0.00000000
Si       2.74108572      -2.69702127       0.02796157       0.00000000
Si      -2.69832447      -0.00384444       2.74244091       0.00000000
