10
Lattice="16.28999089631971 0.0 0.0 0.0 16.28999089631971 0.0 0.0 0.0 34.48637585096406" Properties=species:S:1:pos:R:3:initial_magmoms:R:1 pbc="T T T"
Si      -0.79158227       1.49795998      -1.65493313       0.00000000
Si       1.07998302      -1.62710451      -1.35483252       0.00000000
Si      -1.83344180      -0.54311904       1.42197753       0.00000000
Si       1.06050018       0.74799282       2.00800484       0.00000000
Si      -1.09418531       1.08415652       2.99314321       0.00000000
Si       1.86395556      -1.38365046       2.57727177       0.00000000
Si      -1.71962357      -0.09163614      -3.21185592       0.00000000
Si       1.85975274      -0.31398584      -3.25492943       0.00000000
Si       0.48404269      -3.25121751       1.88064659       0.00000000
Si       1.11661923       3.01226209      -2.17622948       0.00000000
