10
Lattice="16.28999089631971 0.0 0.0 0.0 16.28999089631971 0.0 0.0 0.0 34.48637585096406" Properties=species:S:1:pos:R:3:initial_magmoms:R:1 pbc="T T T"
Si       2.30571918      -0.46037169      -0.09849314       0.00000000
Si      -0.21585879       0.45612000       2.30344979       0.00000000
Si      -0.75862530       1.87144407      -1.28720470       0.00000000
Si      -1.69466499      -1.68645483      -0.30120418       0.00000000
Si      -2.73978252       2.40718959      -0.05038462       0.00000000
Si      -1.79128098       0.81249633      -3.13988282       0.00000000
Si      -2.51004465       0.24420339       2.71973507       0.00000000
Si       3.30757047       1.11834108       1.45846414       0.00000000
Si      -3.54724524      -0.98344359       0.97665471       0.00000000
Si      -2.48619609      -1.39963680      -2.52361094       0.00000000
