10
Lattice="16.28999089631971 0.0 0.0 0.0 16.28999089631971 0.0 0.0 0.0 34.48637585096406" Properties=species:S:1:pos:R:3:initial_magmoms:R:1 pbc="T T T"
Si      -1.33509812       1.35987943       1.32600534       0.00000000
Si       1.40065167      -1.35450364       1.29078094       0.00000000
Si      -1.61862557      -1.17956867      -1.23462743       0.00000000
Si       0.72658776       1.82940610      -1.39598241       0.00000000
Si      -0.18456407      -2.30130526      -2.69636505       0.00000000
Si      -2.57018963       2.66488762      -0.13985268       0.00000000
Si      -2.38313156       0.49067761      -2.86617606       0.00000000
Si      -2.69290220       0.01620366       2.67042297       0.00000000
Si       0.01987543      -2.70045913       2.66483617       0.00000000
Si       0.01749057       2.72960779       2.66359466       0.00000000
