10
Lattice="16.28999089631971 0.0 0.0 0.0 16.28999089631971 0.0 0.0 0.0 34.48637585096406" Properties=species:S:1:pos:R:3:initial_magmoms:R:1 pbc="T T T"
Si       1.35786924       1.35461124       1.35790181       0.00000000
Si       1.35668007      -1.35804354      -1.35645338       0.00000000
Si      -1.35698958       1.35725022      -1.35731554       0.00000000
Si      -1.35759231      -1.35864627       1.35752246       0.00000000
Si      -2.71306692      -0.00086337      -2.71452762       0.00000000
Si       0.00022806      -2.71595627      -2.71201011       0.00000000
Si       2.71480995      -0.00029322      -2.71369995       0.00000000
Si      -2.71480995       2.71446786       0.00003449       0.00000000
Si       2.71637379       0.00195480       2.71311368       0.00000000
Si       2.71515204       2.71438641       0.00017243       0.00000000
