10
Lattice="16.28999089631971 0.0 0.0 0.0 16.28999089631971 0.0 0.0 0.0 34.48637585096406" Properties=species:S:1:pos:R:3:initial_magmoms:R:1 pbc="T T T"
Si      -2.13219810      -0.85507839      -0.25419922       0.00000000
Si       1.49978772      -1.30968016      -1.23737186       0.00000000
Si       0.01189170       0.23247459       2.35742100       0.00000000
Si       0.07061715       2.14909083      -1.00362307       0.00000000
Si       1.94170284       3.02410818       0.13729034       0.00000000
Si      -3.50269209       0.43865712       1.17288230       0.00000000
Si       3.38149449       0.11595222      -1.56806190       0.00000000
Si      -0.53185221       2.47288716       2.74528948       0.00000000
Si      -2.48670108       2.56862349       1.42684011       0.00000000
Si       0.37287810      -2.34187972      -3.07718655       0.00000000
