10
Lattice="16.28999089631971 0.0 0.0 0.0 16.28999089631971 0.0 0.0 0.0 34.48637585096406" Properties=species:S:1:pos:R:3:initial_magmoms:R:1 pbc="T T T"
Si      -0.27024784      -1.67019741      -1.67986679       0.00000000
Si       0.40445464       2.06171127      -1.17402035       0.00000000
Si      -2.07341142      -1.07463501       0.74714775       0.00000000
Si       1.03630790       0.26409348       2.21734140       0.00000000
Si      -0.67149498       2.22135327       2.21461267       0.00000000
Si      -2.08492845      -0.78700248      -2.93665449       0.00000000
Si      -1.70999781       2.95782417      -1.57975279       0.00000000
Si      -1.30890543      -2.74488129       2.37869638       0.00000000
Si       0.30972014      -1.56531262       3.61332381       0.00000000
Si       0.12515607      -3.86661788       0.91695876       0.00000000
