10
Lattice="16.28999089631971 0.0 0.0 0.0 16.28999089631971 0.0 0.0 0.0 34.48637585096406" Properties=species:S:1:pos:R:3:initial_magmoms:R:1 pbc="T T T"
Si      -1.33978734      -1.35690813      -1.37083421       0.00000000
Si       1.35583299      -1.26283338       1.45177378       0.00000000
Si       1.37536470       1.35402480      -1.36976513       0.00000000
Si      -1.35837423       1.32387201       1.52947162       0.00000000
Si       2.01179871       0.57119256       2.95155261       0.00000000
Si       0.27622953       2.42028675       2.85423201       0.00000000
Si      -2.68871337       2.70563868       0.00844917       0.00000000
Si      -2.69808012      -2.71148842       0.02348524       0.00000000
Si      -2.69653257      -0.00283446      -2.73090866       0.00000000
Si       0.01723482       2.71171485      -2.73042585       0.00000000
