10
Lattice="16.28999089631971 0.0 0.0 0.0 16.28999089631971 0.0 0.0 0.0 34.48637585096406" Properties=species:S:1:pos:R:3:initial_magmoms:R:1 pbc="T T T"
Si       2.30493726      -0.55864926       0.11921947       0.00000000
Si      -1.05406074      -1.56118473       1.46643049       0.00000000
Si      -0.38141406       2.35080990       0.20122812       0.00000000
Si      -0.59807106      -0.38512818      -2.35262739       0.00000000
Si      -2.16772659       1.42443018      -2.27565376       0.00000000
Si      -0.65388060       2.45715102       2.51609290       0.00000000
Si       0.98419293       0.89542872       3.32990285       0.00000000
Si       2.91147912       0.74429010       1.97058710       0.00000000
Si      -0.31610745      -3.54597462       0.49243124       0.00000000
Si       1.68143751       3.14252019      -0.55792090       0.00000000
