10
Lattice="16.28999089631971 0.0 0.0 0.0 16.28999089631971 0.0 0.0 0.0 34.48637585096406" Properties=species:S:1:pos:R:3:initial_magmoms:R:1 pbc="T T T"
Si      -1.27075032       1.46637693      -1.26086744       0.00000000
Si      -1.38367260      -1.32519150       1.36684413       0.00000000
Si       1.32827031       1.39261581       1.36229193       0.00000000
Si       1.36832742      -1.37437101      -1.52183289       0.00000000
Si       2.70466128      -2.68926723      -0.02030214       0.00000000
Si      -2.72401380      -2.67633297      -0.00801464       0.00000000
Si      -0.02394630      -2.67967242       2.72340097       0.00000000
Si       2.69255781       0.03419271       2.72178011       0.00000000
Si      -2.73823497       0.03539817       2.72181459       0.00000000
Si       2.70314631       2.76007986      -0.02181264       0.00000000
