10
Lattice="16.28999089631971 0.0 0.0 0.0 16.28999089631971 0.0 0.0 0.0 34.48637585096406" Properties=species:S:1:pos:R:3:initial_magmoms:R:1 pbc="T T T"
Si      -0.48816243      -2.06892774       0.93709881       0.00000000
Si       1.52094843      -0.34946937      -1.72487154       0.00000000
Si       0.56006649       1.33675740       1.85674751       0.00000000
Si      -1.71820404       0.32930235      -1.59140919       0.00000000
Si       0.59665383      -2.25225540      -2.79505335       0.00000000
Si      -1.09470429      -3.37186710      -0.91426882       0.00000000
Si      -1.85056029       2.64275928      -1.86071345       0.00000000
Si       0.78007923       3.50008569       1.03755768       0.00000000
Si       1.41752322      -2.87953443       1.99865903       0.00000000
Si      -1.28977704       1.33110477       3.35462960       0.00000000
