10
Lattice="16.28999089631971 0.0 0.0 0.0 16.28999089631971 0.0 0.0 0.0 34.48637585096406" Properties=species:S:1:pos:R:3:initial_magmoms:R:1 pbc="T T T"
Si      -0.27246654       0.10634112       2.31486479       0.00000000
Si       2.06285157       0.79171029      -0.75914902       0.00000000
Si       0.38141406      -2.35080990      -0.20122812       0.00000000
Si      -1.63450602       1.12681188      -1.34014131       0.00000000
Si      -1.78631253      -0.92637972      -2.47688187       0.00000000
Si      -2.32686360      -1.10827386       2.61393080       0.00000000
Si       1.36560699      -1.45538118       3.12867474       0.00000000
Si      -0.21665700      -2.73593808      -2.55385550       0.00000000
Si       1.93049532       3.10516722      -1.02845328       0.00000000
Si       3.78105561       0.46240794       0.83226017       0.00000000
