10
Lattice="16.28999089631971 0.0 0.0 0.0 16.28999089631971 0.0 0.0 0.0 34.48637585096406" Properties=species:S:1:pos:R:3:initial_magmoms:R:1 pbc="T T T"
Si       1.35524655      -1.35691835       1.35859154       0.00000000
Si      -1.36058967       1.35672405       1.35797078       0.00000000
Si       1.33695288       1.35476925      -1.38383558       0.00000000
Si      -1.33635015      -1.36920863      -1.37753836       0.00000000
Si      -2.73700182      -0.01470498      -2.66831930       0.00000000
Si       2.71041165      -2.71237852      -0.00331069       0.00000000
Si       2.71130760       2.71446297      -0.00482810       0.00000000
Si       2.71256193       0.00022969       2.71535529       0.00000000
Si      -0.00250866      -2.71436590       2.71501043       0.00000000
Si      -0.00229689       2.71532634       2.71518286       0.00000000
