10
Lattice="16.28999089631971 0.0 0.0 0.0 16.28999089631971 0.0 0.0 0.0 34.48637585096406" Properties=species:S:1:pos:R:3:initial_magmoms:R:1 pbc="T T T"
Si       1.25424855      -1.43037603       1.34883189       0.00000000
Si       1.36767582       1.34261007      -1.36762697       0.00000000
Si      -1.34597754      -1.37334474      -1.37055832       0.00000000
Si      -1.24556598       1.43838063       1.52857498       0.00000000
Si       2.67998193      -0.18031401       2.70338851       0.00000000
Si      -2.69114058      -2.71919196      -0.02517507       0.00000000
Si      -2.70514998       2.70569311       0.02738220       0.00000000
Si       0.01089801       2.69887411      -2.72663234       0.00000000
Si      -2.70291825      -0.01638774      -2.72732207       0.00000000
Si       2.72924289       2.70241393       0.01779498       0.00000000
