10
Lattice="16.28999089631971 0.0 0.0 0.0 16.28999089631971 0.0 0.0 0.0 34.48637585096406" Properties=species:S:1:pos:R:3:initial_magmoms:R:1 pbc="T T T"
Si      -1.35869256      -1.35679410      -1.35641889       0.00000000
Si      -1.35710634       1.35723393       1.35769489       0.00000000
Si       1.35786761      -1.35772263       1.35769489       0.00000000
Si       1.35993644       1.35651717      -1.35686722       0.00000000
Si       0.00007819       2.71269225       2.71438967       0.00000000
Si       2.71427075      -0.00123804      -2.71332060       0.00000000
Si      -2.71372734       2.71490769       0.00062076       0.00000000
Si      -2.71408572      -2.71526607       0.00010346       0.00000000
Si       2.71472687       0.00099369       2.71497594       0.00000000
Si       0.00030462      -2.71573848       2.71456211       0.00000000
