10
Lattice="16.28999089631971 0.0 0.0 0.0 16.28999089631971 0.0 0.0 0.0 34.48637585096406" Properties=species:S:1:pos:R:3:initial_magmoms:R:1 pbc="T T T"
Si      -1.22681619       1.96439970       0.01882957       0.00000000
Si      -0.82793925      -0.84258722       2.04300853       0.00000000
Si      -0.73925649      -1.62727556      -1.57116568       0.00000000
Si       2.15468549      -0.33616370      -0.98513836       0.00000000
Si       1.09418531      -1.08415652      -2.99314321       0.00000000
Si      -0.28883799      -3.42815135      -0.09628602       0.00000000
Si       0.41035522      -2.78104739       2.09591066       0.00000000
Si      -3.07247319      -1.15435827       1.32958848       0.00000000
Si      -3.19718943       1.25685984       1.23385424       0.00000000
Si      -1.33959186       2.90607573      -2.13070744       0.00000000
