10
Lattice="16.28999089631971 0.0 0.0 0.0 16.28999089631971 0.0 0.0 0.0 34.48637585096406" Properties=species:S:1:pos:R:3:initial_magmoms:R:1 pbc="T T T"
Si       1.22681619      -1.96439970      -0.01882957       0.00000000
Si       0.87755859       1.61103213       1.45184275       0.00000000
Si      -0.11277567       0.94167603      -2.14953701       0.00000000
Si      -1.97037324      -0.70753986       1.21502467       0.00000000
Si       0.39887694      -2.80698691       2.02417896       0.00000000
Si       0.05504391       1.01920014       3.51195653       0.00000000
Si      -0.50735205       3.46344948       1.17750348       0.00000000
Si      -1.90495260       2.43670707      -2.29196582       0.00000000
Si      -3.83476374      -0.35492652      -0.07183516       0.00000000
Si      -1.84565700      -3.11875797       1.31075891       0.00000000
