10
Lattice="16.28999089631971 0.0 0.0 0.0 16.28999089631971 0.0 0.0 0.0 34.48637585096406" Properties=species:S:1:pos:R:3:initial_magmoms:R:1 pbc="T T T"
Si       1.48221081       1.17506286       1.34707450       0.00000000
Si       1.66926888      -0.99914715      -1.37924889       0.00000000
Si      -1.03461048       1.43425305      -1.60199651       0.00000000
Si      -1.28327733      -1.42100765       1.44163275       0.00000000
Si       0.06864606      -1.01522538      -3.38352920       0.00000000
Si       0.96875001       3.07361349      -1.51729793       0.00000000
Si       2.43377487      -2.66939343       0.25229975       0.00000000
Si      -2.59581150       2.54576862      -0.24199103       0.00000000
Si       0.01413972       2.58950727       2.77061771       0.00000000
Si       3.07118532       2.29684113       0.08821603       0.00000000
