10
Lattice="16.28999089631971 0.0 0.0 0.0 16.28999089631971 0.0 0.0 0.0 34.48637585096406" Properties=species:S:1:pos:R:3:initial_magmoms:R:1 pbc="T T T"
Si       1.33917746       1.35125550      -1.36317823       0.00000000
Si      -1.35426915       1.35796698       1.35766040       0.00000000
Si       1.35664749      -1.35659862       1.35886743       0.00000000
Si      -1.34216568      -1.36549296      -1.38442185       0.00000000
Si      -0.06136443       2.59986771      -2.82222518       0.00000000
Si       2.71358561      -2.71521720      -0.00451772       0.00000000
Si      -2.71624347      -2.71339272      -0.00103459       0.00000000
Si       2.71434798       2.71539639      -0.00779393       0.00000000
Si      -2.71464705      -0.00009774       2.71556221       0.00000000
Si       0.00125433      -2.71507059       2.71538978       0.00000000
