10
Lattice="16.28999089631971 0.0 0.0 0.0 16.28999089631971 0.0 0.0 0.0 34.48637585096406" Properties=species:S:1:pos:R:3:initial_magmoms:R:1 pbc="T T T"
Si      -1.35342207       1.35814617       1.35966061       0.00000000
Si       1.36428750      -1.35842310       1.35948818       0.00000000
Si      -1.32827031      -1.39261581      -1.36229193       0.00000000
Si       1.37487600       1.36746405      -1.38410457       0.00000000
Si      -2.59902063       0.07376112      -2.62315936       0.00000000
Si      -2.71042794       2.70728397       0.00296583       0.00000000
Si      -2.71041165      -0.00114030       2.71749345       0.00000000
Si      -2.71194291      -2.71780731       0.00455220       0.00000000
Si       0.00443088       2.71309950       2.71770037       0.00000000
Si       0.00390960      -2.71648782       2.71738999       0.00000000
