10
Lattice="16.28999089631971 0.0 0.0 0.0 16.28999089631971 0.0 0.0 0.0 34.48637585096406" Properties=species:S:1:pos:R:3:initial_magmoms:R:1 pbc="T T T"
Si       1.35511623       1.33646418       1.38879472       0.00000000
Si      -1.37487600      -1.36746405       1.38410457       0.00000000
Si       1.28231622      -1.48398642      -1.43629283       0.00000000
Si      -0.75570939       1.89081288      -1.36821324       0.00000000
Si       2.71818966       2.68962561       0.00853883       0.00000000
Si       2.68285811      -2.73259863       0.02275412       0.00000000
Si      -2.70954828       2.70826137      -0.00620065       0.00000000
Si      -0.01404198       2.70337437       2.74193741       0.00000000
Si       2.70079215      -0.00979029       2.74679999       0.00000000
Si      -2.70314631      -2.76007986       0.02181264       0.00000000
