10
Lattice="16.28999089631971 0.0 0.0 0.0 16.28999089631971 0.0 0.0 0.0 34.48637585096406" Properties=species:S:1:pos:R:3:initial_magmoms:R:1 pbc="T T T"
Si      -1.61785764       0.71153091      -1.53143735       0.00000000
Si       1.65783397      -1.42918686      -0.94772062       0.00000000
Si       0.80037887       1.81358199       1.39797500       0.00000000
Si      -1.46417778      -1.59523083       1.13149862       0.00000000
Si       2.08290034      -2.68646535       0.98210356       0.00000000
Si      -3.52285911       0.49288653      -0.12442691       0.00000000
Si       1.56144278       0.54998298       3.25499840       0.00000000
Si      -1.25157699       2.95015158       1.89492395       0.00000000
Si      -0.07926714      -3.44764818       1.40583790       0.00000000
Si      -1.05340914       2.87028171      -2.12963836       0.00000000
