10
Lattice="16.28999089631971 0.0 0.0 0.0 16.28999089631971 0.0 0.0 0.0 34.48637585096406" Properties=species:S:1:pos:R:3:initial_magmoms:R:1 pbc="T T T"
Si      -1.47791025      -1.59848883      -0.76797753       0.00000000
Si      -0.70749099       0.63434889       2.15588250       0.00000000
Si       1.50747890      -1.69722252       0.94037502       0.00000000
Si       0.64247760       2.00919231      -1.29430890       0.00000000
Si       1.17640746      -0.53240607       2.98565966       0.00000000
Si      -0.31087836       2.93451874       1.63724161       0.00000000
Si      -0.26464734      -2.10347883      -2.77374076       0.00000000
Si       2.25110925       0.96231546      -2.64693428       0.00000000
Si      -3.47899014      -0.43056099      -0.92837376       0.00000000
Si       0.35719083      -3.66349068       1.27289284       0.00000000
