10
Lattice="16.28999089631971 0.0 0.0 0.0 16.28999089631971 0.0 0.0 0.0 34.48637585096406" Properties=species:S:1:pos:R:3:initial_magmoms:R:1 pbc="T T T"
Si       0.42506637      -1.25727849       1.92982418       0.00000000
Si      -0.79174287      -1.37262798      -1.76335836       0.00000000
Si       2.27050672       0.37670625      -0.61403027       0.00000000
Si      -1.65783397       1.42918686       0.94772062       0.00000000
Si      -1.73710111      -2.01846132       2.35355852       0.00000000
Si       1.29607150      -2.41711020      -2.32817653       0.00000000
Si      -3.12201175      -0.16604397       2.07921925       0.00000000
Si       2.42206888      -0.36465165      -2.87937259       0.00000000
Si       1.35346117       0.26326269       3.53278632       0.00000000
Si      -1.68788902       0.09666486      -3.44098353       0.00000000
