10
Lattice="16.28999089631971 0.0 0.0 0.0 16.28999089631971 0.0 0.0 0.0 34.48637585096406" Properties=species:S:1:pos:R:3:initial_magmoms:R:1 pbc="T T T"
Si      -1.35723649       1.35866745       1.36866156       0.00000000
Si       1.36092850      -1.35868374       1.36621303       0.00000000
Si      -1.37517052      -1.36414089      -1.35538430       0.00000000
Si       1.37158216       1.38430791      -1.37003757       0.00000000
Si      -2.70291240       2.70492192       0.01065630       0.00000000
Si       0.00536430      -2.64072303      -2.76735043       0.00000000
Si      -2.71434798      -2.71539639       0.00779393       0.00000000
Si       2.71519765       2.71454931       0.01117359       0.00000000
Si       2.71526281      -2.71643895       0.00975965       0.00000000
Si      -2.71273527      -0.00029322       2.72370100       0.00000000
