10
Lattice="16.28999089631971 0.0 0.0 0.0 16.28999089631971 0.0 0.0 0.0 34.48637585096406" Properties=species:S:1:pos:R:3:initial_magmoms:R:1 pbc="T T T"
Si       2.00335560       0.74432268      -1.12163552       0.00000000
Si      -2.10604843      -1.24045092      -0.12311643       0.00000000
Si       1.73949018      -1.32520779       1.10587523       0.00000000
Si      -1.06899445       1.57190355       1.56602720       0.00000000
Si       0.12669710       1.42861671      -2.49929803       0.00000000
Si       2.09905935       2.83517676       0.25002636       0.00000000
Si       1.74054903       0.00607617       3.08608404       0.00000000
Si      -1.62961480      -2.58038487       1.80501792       0.00000000
Si      -1.72220716      -2.21345262      -2.34031575       0.00000000
Si       0.61208209      -3.47338638       1.22437049       0.00000000
