10
Lattice="16.28999089631971 0.0 0.0 0.0 16.28999089631971 0.0 0.0 0.0 34.48637585096406" Properties=species:S:1:pos:R:3:initial_magmoms:R:1 pbc="T T T"
Si      -1.15028807      -1.96626816       0.33251782       0.00000000
Si       2.01776574      -0.70299495      -0.98348302       0.00000000
Si      -0.33107144       1.16481645       2.04528464       0.00000000
Si      -1.50747890       1.69722252      -0.94037502       0.00000000
Si      -2.21496989       2.33157141       1.21550748       0.00000000
Si      -2.98538915       0.09873369      -1.70835256       0.00000000
Si       2.37863811       1.33235910      -2.20312887       0.00000000
Si      -0.45055697      -2.68314219       2.38852773       0.00000000
Si      -0.08129362      -3.53817171      -1.23350938       0.00000000
Si      -0.37548939      -0.55904022       3.69563107       0.00000000
