10
Lattice="16.28999089631971 0.0 0.0 0.0 16.28999089631971 0.0 0.0 0.0 34.48637585096406" Properties=species:S:1:pos:R:3:initial_magmoms:R:1 pbc="T T T"
Si       1.33405326      -1.33540533       1.61365291       0.00000000
Si      -1.41014385      -1.22802165      -1.66572879       0.00000000
Si      -1.34320824       1.36494963       1.62048122       0.00000000
Si       1.96257033       1.03622319      -1.26792822       0.00000000
Si      -2.58574428      -2.64090222       0.03079980       0.00000000
Si      -2.92842398       0.41814801      -2.36666477       0.00000000
Si       2.85353559      -2.54909178       0.23357635       0.00000000
Si      -2.74385991       2.71945327       0.32970028       0.00000000
Si       2.73603582       2.75271908       0.21403981       0.00000000
Si       3.74780772      -0.72778833      -1.14557049       0.00000000
