10
Lattice="16.28999089631971 0.0 0.0 0.0 16.28999089631971 0.0 0.0 0.0 34.48637585096406" Properties=species:S:1:pos:R:3:initial_magmoms:R:1 pbc="T T T"
Si       1.35771449       1.35741033      -1.35693619       0.00000000
Si      -1.35732440      -1.35811359      -1.35703965       0.00000000
Si      -1.35459399       1.35742184       1.36155737       0.00000000
Si       1.35603661      -1.36057338       1.36028137       0.00000000
Si      -0.00364896      -2.71104696       2.71263087       0.00000000
Si      -2.70109281      -0.02124216       2.72328716       0.00000000
Si       2.70209560       0.03109761       2.72321819       0.00000000
Si       2.71457375      -2.71515204      -0.00031038       0.00000000
Si      -2.71493931       0.00016290      -2.71490697       0.00000000
Si      -0.00040725       2.71511199      -2.71480351       0.00000000
