10
Lattice="16.28999089631971 0.0 0.0 0.0 16.28999089631971 0.0 0.0 0.0 34.48637585096406" Properties=species:S:1:pos:R:3:initial_magmoms:R:1 pbc="T T T"
Si      -1.60863165       1.04687685       1.35262539       0.00000000
Si      -1.62470988      -1.15843077      -1.32393271       0.00000000
Si       1.14673129       1.73784345      -1.24337249       0.00000000
Si       1.63500775      -1.32717888       1.38418044       0.00000000
Si      -2.25110925      -0.96231546       2.64693428       0.00000000
Si      -0.22637724      -2.35312308      -2.78029317       0.00000000
Si       2.47936732       0.38902149      -2.76970585       0.00000000
Si       2.92618573      -2.44628559      -0.29337576       0.00000000
Si      -0.71003223       2.62661982       2.82240106       0.00000000
Si      -2.51575659      -3.06579429      -0.12680647       0.00000000
