10
Lattice="16.28999089631971 0.0 0.0 0.0 16.28999089631971 0.0 0.0 0.0 34.48637585096406" Properties=species:S:1:pos:R:3:initial_magmoms:R:1 pbc="T T T"
Si      -1.88389845       1.16675496      -0.82977715       0.00000000
Si       0.33107144      -1.16481645      -2.04528464       0.00000000
Si      -0.04441794      -1.72385667       1.65034644       0.00000000
Si       1.31232077       1.93145643       0.50860536       0.00000000
Si      -1.17640746       0.53240607      -2.98565966       0.00000000
Si       3.04479485       0.58021722       1.35121145       0.00000000
Si       2.34987974      -1.63191591       1.96748333       0.00000000
Si      -0.81921663      -3.13108461      -1.71276681       0.00000000
Si       0.71638044       0.30734343       3.74408446       0.00000000
Si      -0.11948552      -3.84795864       0.34324309       0.00000000
