10
Lattice="16.28999089631971 0.0 0.0 0.0 16.28999089631971 0.0 0.0 0.0 34.48637585096406" Properties=species:S:1:pos:R:3:initial_magmoms:R:1 pbc="T T T"
Si      -1.73247408       1.35123921      -0.84260609       0.00000000
Si       1.03265568       1.05894774       1.85267812       0.00000000
Si       1.28065464      -0.12289176      -2.00145243       0.00000000
Si      -0.69491511      -2.21213313       0.61627188       0.00000000
Si      -2.32841441      -0.27287379       2.39287301       0.00000000
Si      -3.04479485      -0.58021722      -1.35121145       0.00000000
Si       2.51074512       2.41192998       0.51577853       0.00000000
Si      -0.94850154       1.59469326       3.08949819       0.00000000
Si       3.21264864       1.08800910      -1.42070153       0.00000000
Si       1.79128098      -0.81249633       3.13988282       0.00000000
