10
Lattice="10.86 0.0 0.0 0.0 10.86 0.0 0.0 0.0 10.86" Properties=species:S:1:pos:R:3:initial_magmoms:R:1 pbc="T T T"
Si      -1.49266356       1.11783066      -1.30432944       0.00000000
Si       1.22233644      -1.59716934      -1.30432944       0.00000000
Si       0.98817312       2.10820836       0.57243060       0.00000000
Si      -1.49266356      -1.59716934       1.41067056       0.00000000
Si      -0.01572528       2.26533084      -2.59206480       0.00000000
Si       0.15843654       2.30062584       2.62236420       0.00000000
Si      -2.85016356       2.47533066       0.05317056       0.00000000
Si      -2.85016356      -0.23966934      -2.66182944       0.00000000
Si       2.72644644      -0.15526542      -2.81187120       0.00000000
Si       2.57983644      -2.95466934       0.05317056       0.00000000
