10
Lattice="10.86 0.0 0.0 0.0 10.86 0.0 0.0 0.0 10.86" Properties=species:S:1:pos:R:3:initial_magmoms:R:1 pbc="T T T"
Si       0.66607638       1.95430044       0.62329884       0.00000000
Si      -2.04892362      -0.76069956       0.62329884       0.00000000
Si       0.66607638      -0.76069956      -2.09170116       0.00000000
Si       2.02357638       0.59680044       1.98079884       0.00000000
Si      -0.69142362      -2.11819956       1.98079884       0.00000000
Si       2.02357638      -2.11819956      -0.73420116       0.00000000
Si       0.66607638      -0.76069956       3.33829884       0.00000000
Si       3.38107638      -0.76069956       0.62329884       0.00000000
Si       0.66607638      -3.47569956       0.62329884       0.00000000
Si       2.38448676       3.03970314      -0.35900988       0.00000000
