10
Lattice="10.86 0.0 0.0 0.0 10.86 0.0 0.0 0.0 10.86" Properties=species:S:1:pos:R:3:initial_magmoms:R:1 pbc="T T T"
Si      -1.35750000       1.35750000      -1.35750000       0.00000000
Si      -1.35750000      -1.35750000       1.35750000       0.00000000
Si       1.35750000       1.35750000       1.35750000       0.00000000
Si       1.35750000      -1.35750000      -1.35750000       0.00000000
Si      -2.34985422      -2.83120200       0.06315090       0.00000000
Si      -2.72828178       2.58500580      -0.07681278       0.00000000
Si       2.85016356      -2.47533066      -0.05317056       0.00000000
Si       2.46848886       2.87501124       0.15660120       0.00000000
Si      -2.91750642      -0.23527104      -2.45778090       0.00000000
Si       0.00000000      -2.71500000       2.71500000       0.00000000
