10
Lattice="16.290000149 0.0 0.0 0.0 16.290000149 0.0 0.0 0.0 29.1751946751" Properties=species:S:1:pos:R:3:initial_magmoms:R:1 pbc="T T T"
Si      -1.35553978      -1.31228983       1.40151800       0.00000000
Si       1.34345260       1.36923967       1.36359025       0.00000000
Si      -1.37417554       1.35053875      -1.36133209       0.00000000
Si       1.42698772      -1.37586970      -1.29324302       0.00000000
Si      -2.67825521      -2.65153961       0.00914059       0.00000000
Si      -2.54886374      -0.11803734      -2.81009640       0.00000000
Si       2.68452686      -0.00706986      -2.71991587       0.00000000
Si       2.71107956       2.71902908       0.01317260       0.00000000
Si      -0.00361638      -2.68174127       2.75644322       0.00000000
Si       2.80202664      -2.64018548       0.12415504       0.00000000
