10
Lattice="16.290000149 0.0 0.0 0.0 16.290000149 0.0 0.0 0.0 29.1751946751" Properties=species:S:1:pos:R:3:initial_magmoms:R:1 pbc="T T T"
Si      -2.30892833      -0.09307617       0.36355210       0.00000000
H       -0.90388324       1.56537127      -1.49563718       0.00000000
Si       0.97630858      -0.40247052      -2.15283761       0.00000000
Si       1.02493423       2.15186015       0.38980978       0.00000000
Si       0.05781321      -2.06873228       1.28738464       0.00000000
H       -2.91916803       1.21389823      -0.08069859       0.00000000
Si       2.84600964       1.26457642       1.53604482       0.00000000
Si       2.89507512      -1.46245920      -1.37575630       0.00000000
Si       3.53365941      -0.78514380       0.77031267       0.00000000
Si      -3.15727896      -1.75321127      -1.03242261       0.00000000
