10
Lattice="16.290000149 0.0 0.0 0.0 16.290000149 0.0 0.0 0.0 29.1751946751" Properties=species:S:1:pos:R:3:initial_magmoms:R:1 pbc="T T T"
Si      -0.90513757       0.90054379      -0.80812372       0.00000000
Si       0.90388324      -1.56537127       1.49563718       0.00000000
H       -2.01528479      -0.35147304       1.41493859       0.00000000
Si       1.92881747       0.58648888       1.88544696       0.00000000
Si       1.88019182      -1.96784179      -0.65720044       0.00000000
Si      -1.40504509      -1.65844745       1.85918928       0.00000000
Si      -2.21776949      -0.56720152      -2.08786446       0.00000000
Si       0.44139384       2.20911950      -2.20045153       0.00000000
Si      -2.04876074       2.32795505       0.65556662       0.00000000
Si       3.05040027       2.02777922       0.33446443       0.00000000
