10
Lattice="16.290000149 0.0 0.0 0.0 16.290000149 0.0 0.0 0.0 29.1751946751" Properties=species:S:1:pos:R:3:initial_magmoms:R:1 pbc="T T T"
Si       1.38336310      -1.34366437      -1.33601969       0.00000000
Si      -1.29681433       1.30337920      -1.46100622       0.00000000
Si       1.38816865       1.35843940       1.33056393       0.00000000
Si      -1.34978941      -1.39098682       1.34506400       0.00000000
Si      -2.77941612       0.05276331       2.46647096       0.00000000
Si      -2.65909817       2.67305870      -0.19882895       0.00000000
Si       2.71099811      -0.01480761       2.66632104       0.00000000
Si       0.01800045      -2.68327253      -2.70853755       0.00000000
Si      -2.70927137      -2.69926931      -0.04455052       0.00000000
Si       2.72771165       0.02788848      -2.69917231       0.00000000
