10
Lattice="16.290000149 0.0 0.0 0.0 16.290000149 0.0 0.0 0.0 29.1751946751" Properties=species:S:1:pos:R:3:initial_magmoms:R:1 pbc="T T T"
Si       1.35500221      -1.36686133       1.33712835       0.00000000
Si      -1.35545833      -1.36790389      -1.33788690       0.00000000
Si       1.37510407       1.33643161      -1.36213149       0.00000000
Si      -1.37808514       1.34570062       1.35775521       0.00000000
Si       2.64833048       0.06983523       2.65044974       0.00000000
Si       0.02873556      -2.72277578      -2.67253536       0.00000000
Si      -2.68374983      -0.00718389      -2.71221362       0.00000000
Si      -2.70696960       2.70493823      -0.00805235       0.00000000
Si      -2.70276841      -2.72169902       0.03839456       0.00000000
Si       0.03205872       2.71955036      -2.70591178       0.00000000
