10
Lattice="16.290000149 0.0 0.0 0.0 16.290000149 0.0 0.0 0.0 29.1751946751" Properties=species:S:1:pos:R:3:initial_magmoms:R:1 pbc="T T T"
Si      -1.43322679       1.31966920      -1.28262908       0.00000000
Si      -1.38020284      -1.31760037       1.36364860       0.00000000
Si       1.33512841       1.40445865       1.33864546       0.00000000
Si       1.34620561      -1.27928629      -1.46100622       0.00000000
Si      -0.07659558       2.65966832      -2.59731879       0.00000000
Si       2.68579748      -2.61565274      -0.03921146       0.00000000
Si      -0.02436984      -2.68794776       2.70264416       0.00000000
Si      -2.75359647      -2.64422540      -0.00008753       0.00000000
Si       2.69791724       0.06486678       2.70284839       0.00000000
Si      -2.74942623       0.06123411       2.68651028       0.00000000
