10
Lattice="16.290000149 0.0 0.0 0.0 16.290000149 0.0 0.0 0.0 29.1751946751" Properties=species:S:1:pos:R:3:initial_magmoms:R:1 pbc="T T T"
Si      -1.34700382      -1.35668008      -1.36239407       0.00000000
Si      -1.37018449       1.36322866       1.33622392       0.00000000
Si       1.35136954       1.37534842      -1.34722296       0.00000000
Si       1.34583094      -1.35918874       1.36910436       0.00000000
Si      -0.00513135       2.71865441       2.68327183       0.00000000
Si      -2.70738173      -2.70138701       0.00971534       0.00000000
Si      -2.69892722       0.01277136      -2.71731928       0.00000000
Si       0.03075552      -2.70541064      -2.71300135       0.00000000
Si       2.77050549       0.04487895      -2.64934108       0.00000000
Si       2.71694396      -2.70471017       0.03045890       0.00000000
