10
Lattice="16.290000149 0.0 0.0 0.0 16.290000149 0.0 0.0 0.0 29.1751946751" Properties=species:S:1:pos:R:3:initial_magmoms:R:1 pbc="T T T"
Si       1.36505314       1.35542575       1.34704791       0.00000000
Si       1.37018449      -1.36322866      -1.33622392       0.00000000
Si      -1.34835589      -1.34757397       1.37841125       0.00000000
Si      -1.34832331       1.36112725      -1.36510736       0.00000000
Si      -0.00992061       2.71969697       2.67962493       0.00000000
Si       2.71572221      -0.02119329       2.68922357       0.00000000
Si       2.72155403       0.01211976      -2.68344688       0.00000000
Si      -2.69635340      -2.70935282       0.02771643       0.00000000
Si       0.02318067      -2.71990874      -2.69861798       0.00000000
Si      -2.70879896       0.00724905      -2.71848629       0.00000000
