10
Lattice="16.290000149 0.0 0.0 0.0 16.290000149 0.0 0.0 0.0 29.1751946751" Properties=species:S:1:pos:R:3:initial_magmoms:R:1 pbc="T T T"
Si       0.90192844       0.07519464      -1.22069015       0.00000000
H       -1.27928629      -1.75114244      -0.42884619       0.00000000
H        1.89125273       0.43013745       1.23743671       0.00000000
Si      -1.81473860      -2.01119600       0.95575020       0.00000000
Si       0.01181025       1.50024385      -2.80916279       0.00000000
Si       1.17797878       2.94962870       0.24670545       0.00000000
Si       1.24160752      -2.04446018      -2.15245834       0.00000000
Si       2.78690952       1.41757210      -0.83484820       0.00000000
Si      -2.65652435      -0.13947498       2.07730304       0.00000000
H       -2.85910680      -0.93221155      -1.61155023       0.00000000
