10
Lattice="16.290000149 0.0 0.0 0.0 16.290000149 0.0 0.0 0.0 29.1751946751" Properties=species:S:1:pos:R:3:initial_magmoms:R:1 pbc="T T T"
Si       1.13859445      -0.96518251      -0.28947628       0.00000000
Si      -1.88622075       1.63916497      -0.25892985       0.00000000
H       -1.14787649      -1.78276133       1.91193803       0.00000000
Si      -1.52744978       1.40794471       2.10309391       0.00000000
Si      -0.17664469      -2.66471822      -1.42771733       0.00000000
Si       2.43307279      -0.80741386       1.73560316       0.00000000
Si       2.61793171       0.23811093      -1.67544390       0.00000000
Si      -0.24787027       2.69671178      -1.69096511       0.00000000
Si      -1.08224408      -0.72728335       2.99142024       0.00000000
Si      -2.95715794      -0.05240493      -1.64270934       0.00000000
