10
Lattice="16.290000149 0.0 0.0 0.0 16.290000149 0.0 0.0 0.0 29.1751946751" Properties=species:S:1:pos:R:3:initial_magmoms:R:1 pbc="T T T"
Si       1.72638164      -1.62189757      -0.10214236       0.00000000
Si      -2.05687316      -1.01963998      -0.72325308       0.00000000
Si       1.39636252       1.73833850      -0.91580936       0.00000000
Si      -1.00525591       1.23830065       1.84486426       0.00000000
H        0.79993675      -1.46859238      -2.64347686       0.00000000
H       -0.60225760       0.56047375      -3.10176082       0.00000000
Si      -2.36230252       2.64482813       0.53183462       0.00000000
Si       2.15946758      -1.87879088       2.18171289       0.00000000
Si      -3.46714571       0.93703339      -0.72059813       0.00000000
Si       3.59549625      -0.73050877      -1.38007423       0.00000000
