10
Lattice="16.290000149 0.0 0.0 0.0 16.290000149 0.0 0.0 0.0 29.1751946751" Properties=species:S:1:pos:R:3:initial_magmoms:R:1 pbc="T T T"
Si      -2.07585101       0.71113507      -0.84024561       0.00000000
Si      -0.77017492      -1.48114220       1.73005987       0.00000000
Si       1.05073759      -0.66869473      -2.07289758       0.00000000
Si       0.92494621       2.08653073       0.80972835       0.00000000
H       -1.38098476       2.27210641       1.75380848       0.00000000
Si      -1.31600395       1.30696137      -2.99673012       0.00000000
Si      -2.62700687       2.25314485       0.89316941       0.00000000
H        0.41207184      -3.60361519      -0.54811438       0.00000000
Si      -2.32104809      -2.78929437       0.54461336       0.00000000
Si      -3.38220802      -1.26109688      -0.93127221       0.00000000
