10
Lattice="16.290000149 0.0 0.0 0.0 16.290000149 0.0 0.0 0.0 29.1751946751" Properties=species:S:1:pos:R:3:initial_magmoms:R:1 pbc="T T T"
Si      -1.35031069      -1.34307793      -1.31238778       0.00000000
Si       1.39514077      -1.28314702       1.35970995       0.00000000
Si       1.38399841       1.33550308      -1.34092112       0.00000000
Si      -1.18319158       1.45134127       1.41251705       0.00000000
Si       2.27353016       0.60602059       2.42898083       0.00000000
Si       0.67192993       2.38311299       2.51910301       0.00000000
Si      -2.66030363       0.08430075      -2.60980869       0.00000000
Si       0.08767278      -2.67771764      -2.59361646       0.00000000
Si       0.01931994      -2.60265332       2.71650238       0.00000000
Si      -2.72236853      -2.59646312       0.12011428       0.00000000
