10
Lattice="16.290000149 0.0 0.0 0.0 16.290000149 0.0 0.0 0.0 29.1751946751" Properties=species:S:1:pos:R:3:initial_magmoms:R:1 pbc="T T T"
Si      -0.64490482       0.84144367      -1.07945303       0.00000000
Si       2.14395950       0.25379820       1.30769058       0.00000000
Si       2.25344459      -1.48095649      -0.49627006       0.00000000
Si       0.38788119       1.22280886       2.57249362       0.00000000
Si      -2.07746372       2.06697296       0.20641450       0.00000000
Si       0.41808285      -2.66623645      -1.50083036       0.00000000
Si      -2.08508744      -0.48874887      -2.28946505       0.00000000
Si      -0.69032134      -2.31132133       2.13789992       0.00000000
Si      -1.37797111      -0.26160111       2.90363207       0.00000000
Si       0.85672369       2.20266866      -2.24129681       0.00000000
