10
Lattice="16.290000149 0.0 0.0 0.0 16.290000149 0.0 0.0 0.0 29.1751946751" Properties=species:S:1:pos:R:3:initial_magmoms:R:1 pbc="T T T"
Si       1.34798122       1.29044494      -1.37170095       0.00000000
Si      -1.53007084       1.25933104       1.21771428       0.00000000
Si       1.03141765      -0.82818361       1.95263743       0.00000000
Si      -1.40892211      -1.39346290      -1.30351852       0.00000000
Si      -0.79878016      -2.11809098       2.59735088       0.00000000
Si      -2.45469125      -0.46288035       2.51183839       0.00000000
Si       2.60351669       2.61007179       0.09729927       0.00000000
Si      -0.07555302       2.65602588      -2.66979289       0.00000000
Si       2.71365338      -0.07809426      -2.71723176       0.00000000
Si      -0.06993297      -2.72440478      -2.71119249       0.00000000
