10
Lattice="16.290000149 0.0 0.0 0.0 16.290000149 0.0 0.0 0.0 29.1751946751" Properties=species:S:1:pos:R:3:initial_magmoms:R:1 pbc="T T T"
Si       1.43874459      -1.34959393       1.28683031       0.00000000
Si      -1.25763688      -1.36793647      -1.45560881       0.00000000
Si       1.37893222       1.32678793      -1.38943947       0.00000000
Si      -1.42990363       1.28212075       1.41219612       0.00000000
Si       0.08962758      -2.76022650       2.59215770       0.00000000
Si      -2.69104286       2.67389601      -0.01870130       0.00000000
Si      -0.03003876       2.69901845       2.67023052       0.00000000
Si      -2.59535540      -2.81528670      -0.19941246       0.00000000
Si      -2.72719037      -0.30812535       2.68837749       0.00000000
Si       2.74939690       2.69902659      -0.05928400       0.00000000
