10
Lattice="16.290000149 0.0 0.0 0.0 16.290000149 0.0 0.0 0.0 29.1751946751" Properties=species:S:1:pos:R:3:initial_magmoms:R:1 pbc="T T T"
Si       1.45619455       1.18332190      -1.42006467       0.00000000
Si      -1.39411450      -1.32639697      -1.36086820       0.00000000
Si      -1.33103962       1.43573545       1.31844455       0.00000000
Si       1.38704464      -1.36547668       1.35487270       0.00000000
Si       0.14382441      -2.60003063      -2.55795562       0.00000000
H       -0.84458764       3.09338958      -1.90200971       0.00000000
Si       0.06889041       2.37198692      -2.88696429       0.00000000
Si       2.68012368       2.66330099      -0.01385238       0.00000000
Si      -2.67271661       0.01769094       2.67840832       0.00000000
Si      -2.61301376      -2.76012876       0.08122374       0.00000000
