10
Lattice="16.290000149 0.0 0.0 0.0 16.290000149 0.0 0.0 0.0 29.1751946751" Properties=species:S:1:pos:R:3:initial_magmoms:R:1 pbc="T T T"
Si       1.34234977       1.36080145       1.35437089       0.00000000
Si      -1.33612210       1.37547874      -1.35343728       0.00000000
Si       1.36556954      -1.35132067      -1.34979038       0.00000000
Si      -1.35389449      -1.34798122       1.37388909       0.00000000
Si      -2.69500133       0.01036044      -2.68475976       0.00000000
Si       2.67123422       0.00156384       2.72017845       0.00000000
Si      -0.00444717      -2.72029970      -2.67516113       0.00000000
Si       2.69386103      -2.71204067       0.02453634       0.00000000
Si      -2.68338656       2.72319932       0.01315801       0.00000000
Si       2.69285105       2.72622926      -0.00983204       0.00000000
