10
Lattice="16.290000149 0.0 0.0 0.0 16.290000149 0.0 0.0 0.0 29.1751946751" Properties=species:S:1:pos:R:3:initial_magmoms:R:1 pbc="T T T"
Si      -0.29323303       0.81428824       2.16730851       0.00000000
Si       1.65591110      -1.65521063       0.08551250       0.00000000
Si      -1.75905938      -1.01053387      -1.17468086       0.00000000
Si       0.92462041       1.72221140      -1.29412411       0.00000000
Si      -0.41765768      -2.31179537      -2.59778851       0.00000000
Si      -2.56372022       1.33257088       2.03380282       0.00000000
Si       2.45469125       0.46288035      -2.51183839       0.00000000
Si       3.48610890      -0.36530325      -0.55920096       0.00000000
Si       1.01312398       2.78652018       2.25833512       0.00000000
Si       2.12527487      -2.07003548       2.30049328       0.00000000
