10
Lattice="16.290000149 0.0 0.0 0.0 16.290000149 0.0 0.0 0.0 29.1751946751" Properties=species:S:1:pos:R:3:initial_magmoms:R:1 pbc="T T T"
Si      -1.34475580      -1.33126768       1.34719087       0.00000000
Si       1.32861241      -1.32241570      -1.38908062       0.00000000
Si      -1.20475954       1.40266675      -1.43684041       0.00000000
Si       1.42933348       1.40331835       1.24253945       0.00000000
Si       2.30648483       0.46371114      -2.55292289       0.00000000
Si       0.67105027       2.19866132      -2.63654425       0.00000000
Si      -2.64556118      -2.65823480      -0.07848711       0.00000000
Si      -2.70135443       0.06390567       2.63588840       0.00000000
Si       0.05157414       2.75204892       2.59314674       0.00000000
Si       0.02560788      -2.69208542       2.66059979       0.00000000
