10
Lattice="16.290000149 0.0 0.0 0.0 16.290000149 0.0 0.0 0.0 29.1751946751" Properties=species:S:1:pos:R:3:initial_magmoms:R:1 pbc="T T T"
Si      -1.36686133       1.35752716      -1.32802569       0.00000000
Si       1.34873056       1.36181143       1.34812740       0.00000000
Si      -1.37600002      -1.33024141       1.35553789       0.00000000
Si       1.37497375      -1.36427122      -1.33257702       0.00000000
Si       2.66830202      -0.07903908       2.62442546       0.00000000
Si       0.00175932       2.70112637      -2.67098907       0.00000000
Si       0.00992061      -2.71969697      -2.67962493       0.00000000
Si      -2.70718625      -0.00511506      -2.69313305       0.00000000
Si      -2.68517846       2.72031599       0.06272667       0.00000000
Si      -0.06600708      -2.75762010       2.65295880       0.00000000
