10
Lattice="16.290000149 0.0 0.0 0.0 16.290000149 0.0 0.0 0.0 29.1751946751" Properties=species:S:1:pos:R:3:initial_magmoms:R:1 pbc="T T T"
Si      -1.40360831       1.31900131       1.31440087       0.00000000
Si       1.37025291      -1.23834952       1.44528079       0.00000000
Si       1.33162932       1.39738879      -1.34252576       0.00000000
Si      -1.39135823      -1.37552761      -1.31224191       0.00000000
Si       2.56852903      -2.64098369      -0.03042973       0.00000000
Si      -0.11378076       2.72870534       2.63309049       0.00000000
Si       2.63059393       0.03978018      -2.76035269       0.00000000
Si       0.00273835      -2.66681963       2.74471479       0.00000000
Si      -2.72643778       2.69224832      -0.02135624       0.00000000
Si      -2.73124333      -0.00985545      -2.68793986       0.00000000
