10
Lattice="16.290000149 0.0 0.0 0.0 16.290000149 0.0 0.0 0.0 29.1751946751" Properties=species:S:1:pos:R:3:initial_magmoms:R:1 pbc="T T T"
Si       0.09093078      -0.68976748      -2.23044072       0.00000000
Si      -0.97787242      -1.78612684       1.16384228       0.00000000
Si       1.83925505       0.88172884       1.18530647       0.00000000
Si      -1.63543456       1.73495018      -0.08362136       0.00000000
H        2.53400726      -0.94885993      -0.73632065       0.00000000
Si       0.55073233       2.32989356       2.51378145       0.00000000
Si      -2.30648483      -0.46371114       2.55292289       0.00000000
Si      -2.10391868      -0.29660832      -3.03847691       0.00000000
Si      -2.06852051       1.99184348      -2.36747660       0.00000000
Si       2.02645973       0.33580206      -3.13472587       0.00000000
