10
Lattice="16.290000149 0.0 0.0 0.0 16.290000149 0.0 0.0 0.0 29.1751946751" Properties=species:S:1:pos:R:3:initial_magmoms:R:1 pbc="T T T"
Si       0.84532069      -1.84510316       1.12444118       0.00000000
Si      -1.71571169       0.75233737       1.38926442       0.00000000
Si      -1.07437438      -0.08335593      -2.10067237       0.00000000
Si       1.79854634       1.59402538       0.11923902       0.00000000
H        2.33399864       1.85407895      -1.26535737       0.00000000
H       -1.15329943      -3.02296791      -1.06151028       0.00000000
H        1.66094471       0.92466928      -2.88440562       0.00000000
Si       2.56301975      -2.28607346      -0.39917501       0.00000000
Si      -0.35717454       2.10305531       2.72362112       0.00000000
Si      -0.62159383       2.13120443      -2.69803448       0.00000000
