10
Lattice="16.290000149 0.0 0.0 0.0 16.290000149 0.0 0.0 0.0 29.1751946751" Properties=species:S:1:pos:R:3:initial_magmoms:R:1 pbc="T T T"
Si      -1.31186629      -1.36000324      -1.34534116       0.00000000
Si       1.31724199      -1.39173616       1.34121287       0.00000000
Si      -1.41913594       1.33046947       1.30211811       0.00000000
Si       1.30854313       1.28915803      -1.47113293       0.00000000
Si      -0.04574232       2.65709450       2.66585424       0.00000000
Si       2.69549003      -0.02770929       2.64636521       0.00000000
Si       2.68066613       2.69540858      -0.15880058       0.00000000
Si       2.64513764      -2.75014299      -0.02538242       0.00000000
Si      -2.77050549      -0.04487895       2.64934108       0.00000000
Si      -2.77044033       2.64942191      -0.10590596       0.00000000
