10
Lattice="16.290000149 0.0 0.0 0.0 16.290000149 0.0 0.0 0.0 29.1751946751" Properties=species:S:1:pos:R:3:initial_magmoms:R:1 pbc="T T T"
Si      -1.42962670       1.44375013       1.12140696       0.00000000
Si      -1.35948196      -1.30828249      -1.38961452       0.00000000
Si       1.34978941       1.39098682      -1.34506400       0.00000000
Si       1.33170751      -1.31512429       1.44274255       0.00000000
H       -0.58516939       2.37814454       1.93098943       0.00000000
Si      -2.70083315      -2.64103256      -0.01636728       0.00000000
Si       0.01394424      -2.66719430      -2.71069651       0.00000000
Si       2.71726976      -2.66540240       0.08805074       0.00000000
Si       2.73315252       0.04732245      -2.68108369       0.00000000
Si      -2.72456768       2.73769743      -0.30517254       0.00000000
