10
Lattice="16.290000149 0.0 0.0 0.0 16.290000149 0.0 0.0 0.0 29.1751946751" Properties=species:S:1:pos:R:3:initial_magmoms:R:1 pbc="T T T"
Si       0.46936377      -0.41482485       2.21498078       0.00000000
Si       1.83019781       1.28990737      -0.64471345       0.00000000
Si      -1.65591110       1.65521063      -0.08551250       0.00000000
Si      -0.65914228      -1.87888862      -1.30255574       0.00000000
H        1.84513574       0.12698055       2.46495385       0.00000000
Si       0.79878016       2.11809098      -2.59735088       0.00000000
Si      -2.07356878      -0.65658475      -2.68330100       0.00000000
Si      -3.41497047       0.64467676      -1.26019336       0.00000000
Si      -0.73129069       3.37742202      -1.37963661       0.00000000
Si       3.65505249      -0.16430094      -0.81241247       0.00000000
