10
Lattice="16.290000149 0.0 0.0 0.0 16.290000149 0.0 0.0 0.0 29.1751946751" Properties=species:S:1:pos:R:3:initial_magmoms:R:1 pbc="T T T"
Si       1.32390460       1.33722282       1.33800360       0.00000000
Si      -1.41766984       1.34308070      -1.25364353       0.00000000
Si       1.23005791      -1.20746254      -1.59485326       0.00000000
Si      -1.46075689      -1.43627188       1.21561366       0.00000000
Si      -2.45700443      -0.51093471      -2.20463234       0.00000000
Si      -0.71278525      -2.05442852      -2.65832500       0.00000000
Si       2.62332110       2.62653560      -0.13551003       0.00000000
Si       2.64028127      -0.09837417       2.61415579       0.00000000
Si       2.53281809      -2.73310250      -0.27560348       0.00000000
Si      -0.11925909       2.66861267       2.62089526       0.00000000
