10
Lattice="16.290000149 0.0 0.0 0.0 16.290000149 0.0 0.0 0.0 29.1751946751" Properties=species:S:1:pos:R:3:initial_magmoms:R:1 pbc="T T T"
Si      -1.37129221       1.35659863       1.33281042       0.00000000
Si      -1.37326330      -1.34736220      -1.34328431       0.00000000
Si       1.35003376       1.36487395      -1.35650068       0.00000000
Si       1.36894645      -1.34462548       1.36391118       0.00000000
Si      -0.00392589       2.71472852       2.66197394       0.00000000
Si      -0.01319490      -2.70485841      -2.68257162       0.00000000
Si       2.71924085      -2.69433019      -0.00916101       0.00000000
Si       2.72114678       0.01935252      -2.69514613       0.00000000
Si      -2.70317891       0.02267568      -2.71588970       0.00000000
Si      -2.71766072      -2.70260876       0.02240655       0.00000000
