10
Lattice="16.290000149 0.0 0.0 0.0 16.290000149 0.0 0.0 0.0 29.1751946751" Properties=species:S:1:pos:R:3:initial_magmoms:R:1 pbc="T T T"
Si       1.36050823      -1.35153244      -1.35294130       0.00000000
Si       1.37404522       1.36404316       1.33167259       0.00000000
Si      -1.35451351       1.35172792      -1.36904601       0.00000000
Si      -1.35379675      -1.34721559       1.37456012       0.00000000
Si       0.00061902       2.72295497       2.65275458       0.00000000
Si       2.68426622      -2.71612946       0.03979497       0.00000000
Si      -2.71406063      -2.69317685       0.00700205       0.00000000
Si      -2.72391608       0.03991050       2.68566420       0.00000000
Si       0.00066789      -2.69524568      -2.71626897       0.00000000
Si       2.71627607       0.02611287      -2.70915023       0.00000000
