10
Lattice="16.290000149 0.0 0.0 0.0 16.290000149 0.0 0.0 0.0 29.1751946751" Properties=species:S:1:pos:R:3:initial_magmoms:R:1 pbc="T T T"
Si      -1.38730414       1.18866502      -1.46689961       0.00000000
Si      -1.45619455      -1.18332190       1.42006467       0.00000000
Si       1.46061957      -1.29236716      -1.33534866       0.00000000
Si       1.22392912       1.47997909       1.40621229       0.00000000
H       -2.30078219       1.91006768      -0.48194504       0.00000000
Si       2.65825223       0.39858372      -2.51816940       0.00000000
Si      -0.06914991      -2.54879858       2.77493737       0.00000000
Si      -2.85030906      -2.50971887       0.05919647       0.00000000
Si       2.60890982       0.14038722       2.77865138       0.00000000
Si      -0.22970415       2.84146473      -2.65001211       0.00000000
