10
Lattice="16.290000149 0.0 0.0 0.0 16.290000149 0.0 0.0 0.0 29.1751946751" Properties=species:S:1:pos:R:3:initial_magmoms:R:1 pbc="T T T"
Si       2.30101139       0.06100605      -0.45183624       0.00000000
Si      -0.85937896       2.07967916      -0.78927654       0.00000000
Si      -0.12711087       0.43305336       2.35732655       0.00000000
Si      -0.92494621      -2.08653073      -0.80972835       0.00000000
H       -2.30593097       0.18557568       0.94408012       0.00000000
H       -1.01815759       2.87481036       0.48699235       0.00000000
Si      -3.55195308       0.16661412       0.08344106       0.00000000
Si      -3.00079722      -1.37539566      -1.64997396       0.00000000
Si       3.07025778       2.10733958       0.42907959       0.00000000
Si       2.06773859       0.03989421       3.16536275       0.00000000
