10
Lattice="16.290000149 0.0 0.0 0.0 16.290000149 0.0 0.0 0.0 29.1751946751" Properties=species:S:1:pos:R:3:initial_magmoms:R:1 pbc="T T T"
Si      -1.37342620       1.35891181       1.32108199       0.00000000
Si      -1.37404522      -1.36404316      -1.33167259       0.00000000
Si       1.35384562       1.37490859      -1.34290504       0.00000000
Si       1.35956341      -1.32550102       1.39145256       0.00000000
Si      -0.01394424       2.66719430       2.71069651       0.00000000
Si       2.68333769      -2.69627195       0.01782604       0.00000000
Si      -0.01353699      -2.71557560      -2.68461389       0.00000000
Si      -2.71477739       0.02616174       2.69432923       0.00000000
Si       2.70111008       0.02718801      -2.70950033       0.00000000
Si      -2.73020402       2.69364926      -0.05624978       0.00000000
