10
Lattice="16.290000149 0.0 0.0 0.0 16.290000149 0.0 0.0 0.0 29.1751946751" Properties=species:S:1:pos:R:3:initial_magmoms:R:1 pbc="T T T"
Si      -0.11196932       1.46475120       0.59838324       0.00000000
Si      -2.13911974       0.67328363      -0.46309787       0.00000000
Si       1.79222745       0.35600231       1.66931711       0.00000000
Si       0.51628386      -0.62789806      -2.50752046       0.00000000
Si       1.57744379      -2.15609555      -1.03163488       0.00000000
Si      -1.04728248      -2.44820783       1.58112050       0.00000000
Si       0.42229545      -1.08945892       2.94471075       0.00000000
Si      -1.75420333      -0.10961541      -2.64102615       0.00000000
Si      -2.83735802      -1.30956940       0.55663354       0.00000000
Si       1.27148501       2.88634368      -0.68307883       0.00000000
