10
Lattice="16.290000149 0.0 0.0 0.0 16.290000149 0.0 0.0 0.0 29.1751946751" Properties=species:S:1:pos:R:3:initial_magmoms:R:1 pbc="T T T"
H        1.19635390       0.36325071       0.89054364       0.00000000
Si       0.84988189       1.48757023      -1.63133101       0.00000000
Si       0.54718111      -2.37931742      -0.73719882       0.00000000
Si      -0.77020098      -2.12933108       1.17713158       0.00000000
Si      -2.19224306       1.42394149       1.04213795       0.00000000
H        2.59854824      -1.66581542       1.34882760       0.00000000
Si      -3.41334147      -0.16395885      -0.36970807       0.00000000
H       -1.88589169      -1.57190356      -2.47280197       0.00000000
Si      -0.25826166      -1.21686301       3.26905139       0.00000000
Si       1.27527895       3.30286269      -0.14861844       0.00000000
