10
Lattice="16.290000149 0.0 0.0 0.0 16.290000149 0.0 0.0 0.0 29.1751946751" Properties=species:S:1:pos:R:3:initial_magmoms:R:1 pbc="T T T"
Si       1.30407967      -1.38052864       1.37511445       0.00000000
Si      -1.37311669      -1.38390067      -1.30970366       0.00000000
Si      -1.32377428       1.37077093       1.37362652       0.00000000
Si       1.35389449       1.34798122      -1.37388909       0.00000000
Si      -2.68333769       2.69627195      -0.01782604       0.00000000
Si       2.68314384      -0.01922220       2.70961703       0.00000000
Si      -0.00195480      -2.72365707      -2.67527783       0.00000000
Si      -2.69687468      -0.01930365      -2.70243993       0.00000000
Si       2.69624426       2.70878267      -0.01951821       0.00000000
Si      -2.66409920       0.02231730       2.74629025       0.00000000
