10
Lattice="16.290000149 0.0 0.0 0.0 16.290000149 0.0 0.0 0.0 29.1751946751" Properties=species:S:1:pos:R:3:initial_magmoms:R:1 pbc="T T T"
Si       1.34475580       1.33126768      -1.34719087       0.00000000
Si      -1.35659863       1.39517335       1.28869752       0.00000000
Si       1.37036368      -1.36081774       1.31340891       0.00000000
Si      -1.30080538      -1.32696712      -1.42567798       0.00000000
Si      -2.68111411       0.01145350       2.65047891       0.00000000
Si      -0.01734885      -2.72013680       2.61721919       0.00000000
Si       0.03595203       2.73860966       2.61806527       0.00000000
Si       2.72593605       0.01107557       2.65138334       0.00000000
Si      -2.58035231       0.04326298      -2.81481111       0.00000000
Si      -2.65092385       2.74792755      -0.14322103       0.00000000
