10
Lattice="16.290000149 0.0 0.0 0.0 16.290000149 0.0 0.0 0.0 29.1751946751" Properties=species:S:1:pos:R:3:initial_magmoms:R:1 pbc="T T T"
Si      -1.45715680      -1.29845962       1.30281832       0.00000000
Si       1.37011933      -1.38712609      -1.31110407       0.00000000
Si      -1.36301689       1.32626665      -1.38059939       0.00000000
Si       1.38318391       1.35029440       1.34033762       0.00000000
Si      -0.05554890       2.72083727       2.57272702       0.00000000
Si      -0.21691764      -2.68814324       2.67568628       0.00000000
Si       2.72453510       2.68304447      -0.03290962       0.00000000
Si       2.72391608      -0.03991050      -2.68566420       0.00000000
Si       0.00985545      -2.73308735      -2.67866215       0.00000000
Si      -0.00935046       2.67763619      -2.74273088       0.00000000
