10
Lattice="16.290000149 0.0 0.0 0.0 16.290000149 0.0 0.0 0.0 29.1751946751" Properties=species:S:1:pos:R:3:initial_magmoms:R:1 pbc="T T T"
Si      -1.33771852      -1.44735022       1.25619636       0.00000000
Si       1.34399017      -1.36502056      -1.35119079       0.00000000
Si      -1.38730528       1.34258923      -1.34696039       0.00000000
Si       1.25763688       1.36793647       1.45560881       0.00000000
Si      -2.70000236      -0.07767072       2.51837363       0.00000000
Si       2.63656910       2.69472440       0.06616934       0.00000000
Si      -0.02687850       2.70594821      -2.68896099       0.00000000
Si       2.69195098      -0.01161477      -2.70897518       0.00000000
Si       2.68680746      -2.72284094       0.01803027       0.00000000
Si      -0.02671560      -2.71300178      -2.70690374       0.00000000
