10
Lattice="16.290000149 0.0 0.0 0.0 16.290000149 0.0 0.0 0.0 29.1751946751" Properties=species:S:1:pos:R:3:initial_magmoms:R:1 pbc="T T T"
Si       1.35659863      -1.39517335      -1.28869752       0.00000000
Si       1.39255066       1.34343631       1.32936775       0.00000000
Si      -1.32451548      -1.38371985       1.36178139       0.00000000
Si      -1.29432522       1.35275419      -1.43191855       0.00000000
Si      -2.64503860       2.68009598      -0.02605345       0.00000000
Si       2.70135443      -0.06390567      -2.63588840       0.00000000
Si       0.03339450       2.69869916       2.68359276       0.00000000
Si      -2.70443324      -0.03523527       2.70261498       0.00000000
Si      -2.63852586      -2.76767103      -0.00212979       0.00000000
Si      -2.65548603      -0.04276125      -2.75179561       0.00000000
