10
Lattice="16.290000149 0.0 0.0 0.0 16.290000149 0.0 0.0 0.0 29.1751946751" Properties=species:S:1:pos:R:3:initial_magmoms:R:1 pbc="T T T"
Si      -0.38406933      -0.64237987      -2.22434602       0.00000000
Si      -1.99365167      -0.59753350       1.16983778       0.00000000
Si       0.76716127       2.04348278       1.00806133       0.00000000
Si       1.49288077      -1.86772997       0.35091924       0.00000000
H       -2.25329798       2.08433810      -0.27325487       0.00000000
Si       1.79287742       0.71110738       2.62731381       0.00000000
H        2.75341728       1.95890510      -0.05207772       0.00000000
Si      -2.14992164      -2.12678984      -1.89320756       0.00000000
Si      -1.06064191      -1.63940932       3.00183578       0.00000000
H       -0.45369279       3.29219274      -1.35591717       0.00000000
