10
Lattice="16.290000149 0.0 0.0 0.0 16.290000149 0.0 0.0 0.0 29.1751946751" Properties=species:S:1:pos:R:3:initial_magmoms:R:1 pbc="T T T"
Si      -1.24602211      -0.01896156      -0.86063907       0.00000000
Si       2.30593097      -0.18557568      -0.94408012       0.00000000
Si       2.17882010       0.24747768       1.41324643       0.00000000
Si       1.44655201       1.89410348      -1.73335667       0.00000000
H        1.28777338       2.68923467      -0.45708777       0.00000000
Si      -2.62947644      -1.44055404       0.42082301       0.00000000
Si       0.69370966      -1.10927082       2.73727511       0.00000000
Si      -0.72527968      -2.54930292       1.49175688       0.00000000
Si      -0.69486625      -1.56097135      -2.59405408       0.00000000
Si      -2.08097584       2.22571901      -0.62878380       0.00000000
