10
Lattice="16.28999089631971 0.0 0.0 0.0 16.28999089631971 0.0 0.0 0.0 34.383488856416385" Properties=species:S:1:pos:R:3:initial_magmoms:R:1 pbc="T T T"
Si       0.08288841      -1.88180451      -1.40081850       0.00000000
Si      -2.32743605       0.27192897      -0.15953948       0.00000000
Si       0.58889490      -0.42469659       2.23613145       0.00000000
Si       1.77323655       1.23569424      -0.94176429       0.00000000
Si       3.45017802      -0.46498176      -0.71022574       0.00000000
Si       2.27977410      -2.62938519      -0.93547210       0.00000000
Si      -2.60516426       0.66282381      -2.45515439       0.00000000
Si      -3.22403765      -1.82216682       0.59294360       0.00000000
Si      -1.79740832      -3.22243893      -0.83266541       0.00000000
Si       1.93139616       3.34668180       0.17501206       0.00000000
