10
Lattice="16.28999089631971 0.0 0.0 0.0 16.28999089631971 0.0 0.0 0.0 34.383488856416385" Properties=species:S:1:pos:R:3:initial_magmoms:R:1 pbc="T T T"
Si      -1.34324082      -1.34169594       1.34980369       0.00000000
Si      -1.52668251       1.13799133      -1.36501839       0.00000000
Si       1.35961227      -1.31514324      -1.40300873       0.00000000
Si       1.37169945       1.37452539       1.34072645       0.00000000
Si       0.26552700       2.13954940      -2.56274899       0.00000000
Si       2.21879574       0.64927830      -2.55790504       0.00000000
Si      -2.70787041      -2.69197404      -0.01392188       0.00000000
Si      -2.69878059       0.01423591       2.70458268       0.00000000
Si       0.01135413      -2.70020049       2.70502966       0.00000000
Si      -2.70430290       2.72857951      -0.02807757       0.00000000
