10
Lattice="16.28999089631971 0.0 0.0 0.0 16.28999089631971 0.0 0.0 0.0 34.383488856416385" Properties=species:S:1:pos:R:3:initial_magmoms:R:1 pbc="T T T"
Si      -1.30631302       1.34255925      -1.48433604       0.00000000
Si       1.37327958      -1.38429131      -1.45913293       0.00000000
Si      -2.00352013      -0.80345507       1.13059851       0.00000000
Si       1.67229882       0.85544101       1.62035720       0.00000000
Si      -2.56374252      -2.72652215      -0.10266916       0.00000000
Si      -3.48965099       1.09348189       0.95022263       0.00000000
Si      -2.45706631       2.89591337      -0.13526472       0.00000000
Si       2.75740830       2.64056762       0.08162645       0.00000000
Si       2.94256044      -2.51436119      -0.06003361       0.00000000
Si      -2.68513676      -0.02906520      -2.84272530       0.00000000
