10
Lattice="16.28999089631971 0.0 0.0 0.0 16.28999089631971 0.0 0.0 0.0 34.383488856416385" Properties=species:S:1:pos:R:3:initial_magmoms:R:1 pbc="T T T"
Si      -1.35558864      -1.35811640      -1.35677323       0.00000000
Si       1.35700587      -1.35729618       1.35759843       0.00000000
Si      -1.35749457       1.35756299       1.35732336       0.00000000
Si       1.35773892       1.35819830      -1.35742652       0.00000000
Si      -0.00004887      -2.71404825      -2.71155221       0.00000000
Si       2.71445157      -2.71412970       0.00013753       0.00000000
Si      -2.71353933       0.00414743       2.71530002       0.00000000
Si      -2.71502172      -2.71463469       0.00027507       0.00000000
Si       0.00004887      -2.71554693       2.71426851       0.00000000
Si      -2.71508688       2.71505756      -0.00037822       0.00000000
