10
Lattice="16.28999089631971 0.0 0.0 0.0 16.28999089631971 0.0 0.0 0.0 34.383488856416385" Properties=species:S:1:pos:R:3:initial_magmoms:R:1 pbc="T T T"
Si      -0.46019250      -2.26452896      -0.02764434       0.00000000
Si      -1.53401301       0.91062729       1.58992780       0.00000000
Si      -0.04499298       0.67984686      -2.29393012       0.00000000
Si       2.42349588       0.05693355       0.22565896       0.00000000
Si       0.78609024      -2.56330385       1.97613922       0.00000000
Si      -0.06273279       1.92806811       3.11112094       0.00000000
Si       2.96813574      -1.86749212      -1.06633574       0.00000000
Si       1.10978883      -3.22521542      -1.45954553       0.00000000
Si      -2.70066697       2.59574634       0.24580770       0.00000000
Si       2.97676944       2.36161017       0.08496165       0.00000000
