10
Lattice="16.28999089631971 0.0 0.0 0.0 16.28999089631971 0.0 0.0 0.0 34.383488856416385" Properties=species:S:1:pos:R:3:initial_magmoms:R:1 pbc="T T T"
Si       1.01092482       0.80101188      -1.89576910       0.00000000
Si      -1.54715904      -1.72889842      -0.30711349       0.00000000
Si      -1.59866476       1.64273247       0.69234632       0.00000000
Si       2.12077881      -0.59310261       1.07500038       0.00000000
Si       2.58246999       2.40430626      -0.98030820       0.00000000
Si      -1.66733966       1.48957389       3.01986913       0.00000000
Si      -0.43982511      -3.80043161      -0.05133458       0.00000000
Si       1.75573620      -0.82214001       3.36855229       0.00000000
Si       0.51108246       1.10491812       3.71218107       0.00000000
Si      -0.91645911       3.82497345       0.12178639       0.00000000
