10
Lattice="16.28999089631971 0.0 0.0 0.0 16.28999089631971 0.0 0.0 0.0 34.383488856416385" Properties=species:S:1:pos:R:3:initial_magmoms:R:1 pbc="T T T"
Si       1.39173615       1.18413639      -1.42003888       0.00000000
Si      -1.82421936       0.98728803       1.13073605       0.00000000
Si       1.62777825      -0.98627805       1.39961508       0.00000000
Si      -1.31202918      -1.59031125      -1.19967498       0.00000000
Si       2.67651216       2.34807318       0.14482334       0.00000000
Si      -0.07978842       2.44711638      -2.64381670       0.00000000
Si       0.28059525      -1.91682801       3.08351300       0.00000000
Si      -0.80480745       2.62760958       2.53746851       0.00000000
Si       2.67747327      -0.31304493      -2.63092289       0.00000000
Si       0.71122140       3.62778300       0.79828191       0.00000000
