10
Lattice="16.28999089631971 0.0 0.0 0.0 16.28999089631971 0.0 0.0 0.0 34.383488856416385" Properties=species:S:1:pos:R:3:initial_magmoms:R:1 pbc="T T T"
Si      -1.24465374       1.92705813       0.34362878       0.00000000
Si       0.36504261       0.22903740      -2.29355191       0.00000000
Si      -1.46820141      -1.83367766       0.39076857       0.00000000
Si       2.26256697       0.46858185       0.71913107       0.00000000
Si      -1.95207957       1.37184606       2.51762923       0.00000000
Si       1.18526040      -1.99510865      -2.79166579       0.00000000
Si       2.04372711       3.01193955       0.53273807       0.00000000
Si      -1.02522744      -2.42420354       2.62906618       0.00000000
Si      -0.86706783      -0.31321598       3.74584252       0.00000000
Si      -0.06556725       3.85985034      -0.17085165       0.00000000
