10
Lattice="16.28999089631971 0.0 0.0 0.0 16.28999089631971 0.0 0.0 0.0 34.383488856416385" Properties=species:S:1:pos:R:3:initial_magmoms:R:1 pbc="T T T"
Si      -1.35661600       1.35778779      -1.35708268       0.00000000
Si      -1.35767485      -1.35669962       1.35725460       0.00000000
Si       1.35743713      -1.35795721      -1.35783912       0.00000000
Si       1.35847318       1.35733167       1.35759843       0.00000000
Si       0.00035868       2.71603170      -2.71096769       0.00000000
Si       2.71291012      -0.00099369      -2.71495618       0.00000000
Si       2.71470202       2.71500543      -0.00027507       0.00000000
Si      -2.71409428       0.00109143      -2.71595330       0.00000000
Si       2.71706407      -0.00276930       2.71303070       0.00000000
Si      -2.71551151      -2.71514249       0.00013753       0.00000000
