10
Lattice="16.28999089631971 0.0 0.0 0.0 16.28999089631971 0.0 0.0 0.0 34.383488856416385" Properties=species:S:1:pos:R:3:initial_magmoms:R:1 pbc="T T T"
Si       0.07299549      -2.13006411      -0.96194741       0.00000000
Si      -2.33320041       0.21753666      -0.04132898       0.00000000
Si       1.23673680      -0.36619920       2.00720605       0.00000000
Si       0.35585505       1.76580342      -1.66557151       0.00000000
Si      -2.29760676       1.92723441       1.51686284       0.00000000
Si      -0.46706688      -1.44708957      -3.30036979       0.00000000
Si       3.32891037       0.64138617       1.36103678       0.00000000
Si      -0.93434553       0.89565678      -3.52152451       0.00000000
Si       1.83335805      -2.63827953       1.95765942       0.00000000
Si       2.07739854      -3.18710592      -0.33052866       0.00000000
