10
Lattice="16.28999089631971 0.0 0.0 0.0 16.28999089631971 0.0 0.0 0.0 34.383488856416385" Properties=species:S:1:pos:R:3:initial_magmoms:R:1 pbc="T T T"
Si       2.25939042       0.53806589      -0.30064939       0.00000000
Si      -1.29020058      -0.87014664      -1.85595300       0.00000000
Si      -0.82021779       2.22414605       0.49811388       0.00000000
Si      -0.35585505      -1.76580342       1.66557151       0.00000000
Si       2.56082058       0.98729847       2.03151519       0.00000000
Si      -2.68905546      -1.54826676       1.62424254       0.00000000
Si      -3.38082171      -0.98318295      -0.62822108       0.00000000
Si      -1.18526040       1.99510865       2.79166579       0.00000000
Si      -0.82292193      -3.21289299      -1.63479827       0.00000000
Si       0.95444739       3.83626961      -0.14692073       0.00000000
