10
Lattice="16.28999089631971 0.0 0.0 0.0 16.28999089631971 0.0 0.0 0.0 34.383488856416385" Properties=species:S:1:pos:R:3:initial_magmoms:R:1 pbc="T T T"
Si      -0.16250904       0.83499282      -2.20559889       0.00000000
Si      -1.78359210       0.39082968       1.53384830       0.00000000
Si       2.07311427       0.72967797       1.01073760       0.00000000
Si      -0.54882639      -2.35919925      -0.24690797       0.00000000
Si       1.76407668      -2.31197454       1.03590633       0.00000000
Si      -1.97734536       2.65896783       0.91501392       0.00000000
Si       0.68690043      -1.10514618      -3.28885131       0.00000000
Si       2.12651289      -0.81003654       2.85365925       0.00000000
Si       1.52588430       2.67603975       2.22162161       0.00000000
Si      -3.73651875      -0.53743968       0.49464115       0.00000000
