10
Lattice="16.28999089631971 0.0 0.0 0.0 16.28999089631971 0.0 0.0 0.0 34.383488856416385" Properties=species:S:1:pos:R:3:initial_magmoms:R:1 pbc="T T T"
Si      -1.00385496      -1.89578133      -1.04941045       0.00000000
Si      -1.25577981       1.39830102       1.48291257       0.00000000
Si      -0.06511113       1.37718918      -2.01984684       0.00000000
Si       1.46759868      -1.28607921       1.47700204       0.00000000
Si       0.94941378      -3.38605243      -1.04456651       0.00000000
Si      -2.17616481       0.58735224      -3.00128970       0.00000000
Si      -2.50659117       2.82225879       0.02053383       0.00000000
Si       2.89328319      -2.52388463       0.03641901       0.00000000
Si      -2.61087975       0.05178591       2.85781278       0.00000000
Si       0.10231749      -2.66080534       2.85406498       0.00000000
