10
Lattice="16.28999089631971 0.0 0.0 0.0 16.28999089631971 0.0 0.0 0.0 34.383488856416385" Properties=species:S:1:pos:R:3:initial_magmoms:R:1 pbc="T T T"
Si       1.35664749       1.35616693      -1.35842364       0.00000000
Si      -1.36272366       1.35499406       1.35625748       0.00000000
Si      -1.35876519      -1.35898545      -1.35835487       0.00000000
Si       1.35883035      -1.36307023       1.35993651       0.00000000
Si       2.71072116       0.02812306       2.71086454       0.00000000
Si      -0.00628794       2.71426423       2.71179290       0.00000000
Si      -2.71360449       2.71519276      -0.00202863       0.00000000
Si       2.71324611      -0.00168439      -2.71629714       0.00000000
Si      -0.00063531       2.71361263      -2.71622837       0.00000000
Si       2.71619460       2.71367779      -0.00120342       0.00000000
