10
Lattice="16.28999089631971 0.0 0.0 0.0 16.28999089631971 0.0 0.0 0.0 34.383488856416385" Properties=species:S:1:pos:R:3:initial_magmoms:R:1 pbc="T T T"
Si      -1.66645071       1.27908917      -1.00812446       0.00000000
Si      -1.07852832      -2.06106849       0.39633870       0.00000000
Si       0.36344619       1.14156899       2.04925708       0.00000000
Si       2.13120441      -0.00947101      -1.05385452       0.00000000
Si       2.02631310       2.61151343       1.27287747       0.00000000
Si       3.45401757       0.86192182       0.61539603       0.00000000
Si       0.68953941      -0.71469999       3.47882020       0.00000000
Si      -3.42015066      -1.39283640       0.40324978       0.00000000
Si      -0.47428335      -2.65635396       2.60149060       0.00000000
Si       2.07707274       1.40678648      -2.91599655       0.00000000
