10
Lattice="16.28999089631971 0.0 0.0 0.0 16.28999089631971 0.0 0.0 0.0 34.383488856416385" Properties=species:S:1:pos:R:3:initial_magmoms:R:1 pbc="T T T"
Si      -1.89374508       0.34759602      -1.32111753       0.00000000
Si       1.68585210      -1.09952613      -1.22962302       0.00000000
Si       0.51293952       2.10732327       0.97752313       0.00000000
Si       0.03793941      -2.16172861       1.39201632       0.00000000
Si       2.01194532      -2.95579511       0.19994010       0.00000000
Si      -1.08773217       1.02837141      -3.36030024       0.00000000
Si      -2.89250127      -1.77056987      -1.51741298       0.00000000
Si       2.82061350       1.92213855       1.63153184       0.00000000
Si       0.35917821       3.68160516      -0.90167312       0.00000000
Si      -3.07069758       2.21314311      -0.50048634       0.00000000
