10
Lattice="16.28999089631971 0.0 0.0 0.0 16.28999089631971 0.0 0.0 0.0 34.383488856416385" Properties=species:S:1:pos:R:3:initial_magmoms:R:1 pbc="T T T"
Si      -1.35739683      -1.35710361      -1.35715145       0.00000000
Si       1.35728280      -1.35744570       1.35780473       0.00000000
Si      -1.35809730       1.35754344       1.35783912       0.00000000
Si       1.35941679       1.35809730      -1.35615433       0.00000000
Si       2.70689301       0.00503361      -2.71818823       0.00000000
Si      -2.71296918       0.00158013       2.71419974       0.00000000
Si      -2.71476108       2.71399545       0.00006877       0.00000000
Si       0.00529425       2.70928764      -2.71980426       0.00000000
Si       2.71388142      -2.71529702      -0.00006877       0.00000000
Si       2.71441899       2.71508688       0.00048137       0.00000000
