10
Lattice="16.28999089631971 0.0 0.0 0.0 16.28999089631971 0.0 0.0 0.0 34.383488856416385" Properties=species:S:1:pos:R:3:initial_magmoms:R:1 pbc="T T T"
Si      -1.43982423       1.24564743      -1.34632064       0.00000000
Si      -1.03053798      -1.49714874       1.59690765       0.00000000
Si       1.49565006      -1.46764755      -1.21198428       0.00000000
Si       1.91777283       1.34638479      -0.83899198       0.00000000
Si       0.59921136       2.29809546       1.00172912       0.00000000
Si       0.59308632       1.33920090       3.10211448       0.00000000
Si       0.23877882      -3.43634292       1.17158365       0.00000000
Si       2.45667861      -2.55003660       0.89149560       0.00000000
Si      -2.64187962      -0.21841632      -2.74260052       0.00000000
Si       0.04728987       2.58989823      -2.80418138       0.00000000
