10
Lattice="16.28999089631971 0.0 0.0 0.0 16.28999089631971 0.0 0.0 0.0 34.383488856416385" Properties=species:S:1:pos:R:3:initial_magmoms:R:1 pbc="T T T"
Si      -0.00612504      -0.95889456       2.10038536       0.00000000
Si       1.31856147      -0.95171067      -1.84072110       0.00000000
Si      -0.59921136      -2.29809546      -1.00172912       0.00000000
Si       2.61288342       0.46806057      -0.39730144       0.00000000
Si      -0.01260846       2.63464686       0.99509311       0.00000000
Si       0.95509899       1.72973736      -2.42152732       0.00000000
Si      -2.03903559      -1.05244803      -2.34804977       0.00000000
Si      -3.33143532       0.58003803       1.32221780       0.00000000
Si       0.14400360       3.54643074      -1.13132057       0.00000000
Si      -2.02618278       2.40280758       2.17441305       0.00000000
