10
Lattice="16.28999089631971 0.0 0.0 0.0 16.28999089631971 0.0 0.0 0.0 34.383488856416385" Properties=species:S:1:pos:R:3:initial_magmoms:R:1 pbc="T T T"
Si       1.98926964      -1.04075181      -0.60023290       0.00000000
Si      -0.10570581       0.86990229       2.19181111       0.00000000
Si      -0.98236845       1.63523907      -1.40154056       0.00000000
Si      -1.55261619      -1.78333146      -0.26681602       0.00000000
Si      -2.41303770       1.41765354       2.09478085       0.00000000
Si      -3.00473937       1.94856093      -0.18102917       0.00000000
Si       1.72465488      -1.72416618      -2.83622681       0.00000000
Si      -2.35862910      -2.46410685       1.77236669       0.00000000
Si       1.32680421       2.79274131       2.34856552       0.00000000
Si      -1.05860565       0.91134405      -3.65280075       0.00000000
