10
Lattice="16.28999089631971 0.0 0.0 0.0 16.28999089631971 0.0 0.0 0.0 34.383488856416385" Properties=species:S:1:pos:R:3:initial_magmoms:R:1 pbc="T T T"
Si      -1.07199603      -0.46322244       2.03581313       0.00000000
Si      -0.79535925       0.11313405      -2.23881336       0.00000000
Si       1.64745657      -1.61282403      -0.67044402       0.00000000
Si       0.65246337       2.27564784       0.47514570       0.00000000
Si       2.88104940       1.68023205      -0.05525430       0.00000000
Si       2.95430553       0.07327242      -1.84371247       0.00000000
Si      -2.15384751      -2.43983475       1.33607436       0.00000000
Si      -1.97622135       2.09922714      -2.11768026       0.00000000
Si       1.21821507       0.34497333      -3.41813330       0.00000000
Si       1.80090837      -2.93785263       1.27965102       0.00000000
