10
Lattice="16.28999089631971 0.0 0.0 0.0 16.28999089631971 0.0 0.0 0.0 34.383488856416385" Properties=species:S:1:pos:R:3:initial_magmoms:R:1 pbc="T T T"
Si      -0.73596591      -2.13376194       0.61109809       0.00000000
Si       2.04550272      -0.60919713      -1.01042815       0.00000000
Si      -0.40760838       1.59661548       1.76022931       0.00000000
Si      -1.59438375       0.26901306      -1.80509979       0.00000000
Si      -0.81220311      -2.85765696      -1.64016210       0.00000000
Si       1.27852065      -2.20561713      -2.56126190       0.00000000
Si      -2.55806757       2.28325527      -1.15232889       0.00000000
Si      -2.72152143       2.08608111       1.18004200       0.00000000
Si       0.65427156       3.51163530       0.82592625       0.00000000
Si      -2.75833683      -1.82044008       1.83160947       0.00000000
