10
Lattice="16.28999089631971 0.0 0.0 0.0 16.28999089631971 0.0 0.0 0.0 34.383488856416385" Properties=species:S:1:pos:R:3:initial_magmoms:R:1 pbc="T T T"
Si       1.51801623      -0.12214242       1.79956405       0.00000000
Si       1.85179833       0.78970892      -1.23175479       0.00000000
Si      -1.64211345       1.72399743       0.50227429       0.00000000
Si      -1.02630258      -2.02295736      -0.98240559       0.00000000
Si       0.33000282       2.00831821      -2.47162409       0.00000000
Si      -2.38837464      -0.73474416      -2.45089084       0.00000000
Si      -0.98324811       3.41970173      -1.04505234       0.00000000
Si      -3.56011434       0.83376685      -1.00564884       0.00000000
Si       0.47677572      -1.11441519       3.67631907       0.00000000
Si       3.05572707      -0.76189959      -2.46577890       0.00000000
