10
Lattice="16.28999089631971 0.0 0.0 0.0 16.28999089631971 0.0 0.0 0.0 34.383488856416385" Properties=species:S:1:pos:R:3:initial_magmoms:R:1 pbc="T T T"
Si       0.71575002       2.18310013       0.38031598       0.00000000
Si       2.03535405      -0.66028257      -0.97786697       0.00000000
Si      -0.97542891      -1.33587774       1.72911224       0.00000000
Si      -1.90013076       0.15910443      -1.49846767       0.00000000
Si      -2.08132443      -2.92258890       0.36786915       0.00000000
Si      -0.84492972       2.91472802       2.01105700       0.00000000
Si      -3.29672133       1.55286773      -0.14661128       0.00000000
Si       0.76528791       3.24406295      -1.75782247       0.00000000
Si      -2.39850702      -2.11193334      -2.20374218       0.00000000
Si       3.94755570      -0.44061192       0.43144426       0.00000000
