10
Lattice="16.28999089631971 0.0 0.0 0.0 16.28999089631971 0.0 0.0 0.0 34.383488856416385" Properties=species:S:1:pos:R:3:initial_magmoms:R:1 pbc="T T T"
Si      -1.39659057       1.39376330       1.35185639       0.00000000
Si       1.90013076      -0.15910443       1.49846767       0.00000000
Si      -0.49837626      -2.27103777      -0.70527452       0.00000000
Si      -2.02132836       0.24037524      -2.85792281       0.00000000
Si      -0.18119367      -3.08169333       1.86633682       0.00000000
Si       0.92470185      -1.49498217       3.22757990       0.00000000
Si       1.81659564       2.01902562      -2.65344408       0.00000000
Si       2.61588078       2.02399570       1.87878365       0.00000000
Si       3.93548481      -0.81938700       0.52060070       0.00000000
Si      -2.71316466      -2.50828533      -1.71326144       0.00000000
