10
Lattice="16.28999089631971 0.0 0.0 0.0 16.28999089631971 0.0 0.0 0.0 34.383488856416385" Properties=species:S:1:pos:R:3:initial_magmoms:R:1 pbc="T T T"
Si      -1.42568451       1.23780542       1.44058303       0.00000000
Si      -1.94386941      -0.86216780      -1.08098552       0.00000000
Si       1.27646811      -1.49571263       1.44119506       0.00000000
Si       1.54750113       1.21312607      -1.53951611       0.00000000
Si       2.67994935       2.62545278       0.01948170       0.00000000
Si      -0.08382834       2.58124172       2.81981213       0.00000000
Si      -2.89328319       2.52388463      -0.03641901       0.00000000
Si       2.64119544      -0.14073257       2.81953706       0.00000000
Si       3.45958875      -0.26742153      -1.82369581       0.00000000
Si      -1.73120346      -0.77822543      -3.46798393       0.00000000
