10
Lattice="16.28999089631971 0.0 0.0 0.0 16.28999089631971 0.0 0.0 0.0 34.383488856416385" Properties=species:S:1:pos:R:3:initial_magmoms:R:1 pbc="T T T"
Si      -1.35529542      -1.35669681       1.35704830       0.00000000
Si       1.35796698      -1.35718551      -1.35722021       0.00000000
Si      -1.35795069       1.35724230      -1.35790788       0.00000000
Si       1.35783666       1.35844287       1.35711706       0.00000000
Si      -0.00254124       2.71364381       2.71385591       0.00000000
Si      -0.00206883      -2.71526652       2.71364961       0.00000000
Si       2.71360449      -0.00254169      -2.71547193       0.00000000
Si      -2.71433754      -2.71505475      -0.00003438       0.00000000
Si      -2.71454931       2.71509362      -0.00003438       0.00000000
Si      -2.71531494      -0.00242766      -2.71437166       0.00000000
