10
Lattice="16.28999089631971 0.0 0.0 0.0 16.28999089631971 0.0 0.0 0.0 34.383488856416385" Properties=species:S:1:pos:R:3:initial_magmoms:R:1 pbc="T T T"
Si       1.36027594      -1.35561707      -1.36151815       0.00000000
Si      -1.35742941       1.35919681      -1.36120870       0.00000000
Si      -1.35001746      -1.38241412       1.35677323       0.00000000
Si       1.37882374       1.37162445       1.35838925       0.00000000
Si      -2.55394620       0.16919439       2.59079733       0.00000000
Si       2.71730951       2.71312713      -0.00543259       0.00000000
Si      -2.71733490      -2.71451258      -0.00467616       0.00000000
Si      -2.71780731       2.71439775      -0.00446986       0.00000000
Si       0.00020365      -2.71443113      -2.71825700       0.00000000
Si       2.71628324      -2.71684205      -0.00158164       0.00000000
