10
Lattice="16.28999089631971 0.0 0.0 0.0 16.28999089631971 0.0 0.0 0.0 34.383488856416385" Properties=species:S:1:pos:R:3:initial_magmoms:R:1 pbc="T T T"
Si      -1.35793440      -1.32659407       1.35539789       0.00000000
Si      -1.35246096       1.35896067      -1.35667008       0.00000000
Si       1.36037790      -1.35520094      -1.35673884       0.00000000
Si       1.35975888       1.37642355       1.37963826       0.00000000
Si       0.16386111      -2.54520336       2.59526719       0.00000000
Si      -2.71200807       0.00144981      -2.71389029       0.00000000
Si      -2.71215468       2.71454931       0.00175356       0.00000000
Si       0.00254124      -2.71364381      -2.71385591       0.00000000
Si      -2.70982521      -2.71778735       0.00446986       0.00000000
Si       0.00273672       2.71692765      -2.71368399       0.00000000
