10
Lattice="16.28999089631971 0.0 0.0 0.0 16.28999089631971 0.0 0.0 0.0 34.383488856416385" Properties=species:S:1:pos:R:3:initial_magmoms:R:1 pbc="T T T"
Si      -1.88319960       0.83886984      -1.17962939       0.00000000
Si       1.48184917       1.81576485      -0.53541999       0.00000000
Si       0.72441467      -1.96079472      -1.32146137       0.00000000
Si       0.08773468       0.33231600       2.51945155       0.00000000
Si       2.01511861      -2.69164557       0.50189607       0.00000000
Si      -0.71776591       2.02966884      -2.82807792       0.00000000
Si       1.99403935      -0.76183443      -2.86583101       0.00000000
Si      -0.59447097      -1.84992498       3.09001149       0.00000000
Si      -3.05008488       2.12185395       0.49553512       0.00000000
Si       3.30606853       0.82847682      -1.66615603       0.00000000
