10
Lattice="16.28999089631971 0.0 0.0 0.0 16.28999089631971 0.0 0.0 0.0 34.383488856416385" Properties=species:S:1:pos:R:3:initial_magmoms:R:1 pbc="T T T"
Si      -0.78604137      -0.68843169      -2.15484883       0.00000000
Si      -1.41446070       1.88392221      -0.44076219       0.00000000
Si      -0.84722661      -1.91876652       1.22367467       0.00000000
Si       2.27927141       0.86910408      -0.35181205       0.00000000
Si      -1.43220051       1.47626496      -2.79218154       0.00000000
Si       3.14633924      -1.10402217      -1.36024596       0.00000000
Si       0.07653042       3.68204499      -0.00151287       0.00000000
Si       1.17507656      -3.02122485       1.75892274       0.00000000
Si       1.75089222       2.88782604      -1.54959594       0.00000000
Si      -1.80701712      -3.38061483      -0.38705515       0.00000000
