10
Lattice="16.28999089631971 0.0 0.0 0.0 16.28999089631971 0.0 0.0 0.0 34.383488856416385" Properties=species:S:1:pos:R:3:initial_magmoms:R:1 pbc="T T T"
Si      -0.98608257       0.45683676       2.11788110       0.00000000
Si      -0.57531393      -2.01131001      -1.23722177       0.00000000
Si       2.16440343      -1.08074376       0.59920140       0.00000000
Si      -1.00110195       2.11789548      -1.13682193       0.00000000
Si       0.65598201       2.31826248       2.24562959       0.00000000
Si       1.05316479      -2.69149896       2.01072834       0.00000000
Si      -0.33243003      -1.38061008       3.44391204       0.00000000
Si      -2.88298791      -1.82612529      -1.89123048       0.00000000
Si       0.91258209      -2.10118194      -3.26402642       0.00000000
Si       0.60452190       3.86022501      -0.83661952       0.00000000
