10
Lattice="16.28999089631971 0.0 0.0 0.0 16.28999089631971 0.0 0.0 0.0 34.383488856416385" Properties=species:S:1:pos:R:3:initial_magmoms:R:1 pbc="T T T"
Si      -1.26962468      -1.19896029       1.54436965       0.00000000
Si       1.26135099      -1.42609176      -1.40693877       0.00000000
Si       1.31202918       1.59031125       1.19967498       0.00000000
Si      -1.45567929       1.30246695      -1.40766082       0.00000000
Si      -0.51219018       2.57759928       2.33041103       0.00000000
Si      -1.99403935       0.76183443       2.86583101       0.00000000
Si      -2.59033480      -2.56324779      -0.08293302       0.00000000
Si       2.61244359      -0.05937705      -2.79170017       0.00000000
Si       2.62413981      -2.81859354       0.13395815       0.00000000
Si      -0.10697643       2.65904928      -2.79118442       0.00000000
