10
Lattice="16.28999089631971 0.0 0.0 0.0 16.28999089631971 0.0 0.0 0.0 34.383488856416385" Properties=species:S:1:pos:R:3:initial_magmoms:R:1 pbc="T T T"
Si       1.35689184       1.35749457       1.35959268       0.00000000
Si      -1.35883035      -1.35721764       1.35952391       0.00000000
Si       1.36590021      -1.36718712      -1.34755845       0.00000000
Si      -1.36923966       1.36472733      -1.35305981       0.00000000
Si       2.70717118       0.00682551      -2.69011410       0.00000000
Si       0.00539199       2.71233387      -2.70553166       0.00000000
Si       2.71338777       2.71329498       0.00178794       0.00000000
Si      -2.71383255      -2.71420722       0.00288821       0.00000000
Si       2.71445296      -2.71366965       0.00577643       0.00000000
Si      -2.71458189       2.71500543       0.00409164       0.00000000
