10
Lattice="16.28999089631971 0.0 0.0 0.0 16.28999089631971 0.0 0.0 0.0 34.383488856416385" Properties=species:S:1:pos:R:3:initial_magmoms:R:1 pbc="T T T"
Si       0.98271121      -1.26742716       1.73760496       0.00000000
Si       1.45822283       1.72880883      -0.72724558       0.00000000
Si      -1.71137853       1.03832460       1.38599921       0.00000000
Si      -0.42194358      -0.21756924      -2.71155221       0.00000000
Si      -2.60293023       0.96501960      -1.90749388       0.00000000
Si      -0.18674856      -3.34050885       1.38857797       0.00000000
Si      -2.67618636       2.57197923      -0.11903570       0.00000000
Si      -0.49938624       2.04113700       3.13453813       0.00000000
Si       0.37375776      -0.08457768       3.76695399       0.00000000
Si       0.87435990       2.26387017      -2.96117648       0.00000000
