10
Lattice="16.28999089631971 0.0 0.0 0.0 16.28999089631971 0.0 0.0 0.0 34.383488856416385" Properties=species:S:1:pos:R:3:initial_magmoms:R:1 pbc="T T T"
Si      -1.90355166      -1.10931642       0.70517137       0.00000000
Si       1.27954107       0.30224466       1.94775697       0.00000000
Si      -0.87314400       2.12571468      -0.63241586       0.00000000
Si       0.60895345      -1.18284948      -2.02934903       0.00000000
Si      -2.08513629       1.12290228      -2.38095478       0.00000000
Si      -3.36310308      -0.36510777      -1.00025063       0.00000000
Si      -1.88581185      -0.70165917       3.05659072       0.00000000
Si      -0.39482073       1.09646361       3.49584003       0.00000000
Si      -1.25739252      -3.27401307       1.34250407       0.00000000
Si      -0.37375776       0.08457768      -3.76695399       0.00000000
