10
Lattice="16.28999089631971 0.0 0.0 0.0 16.28999089631971 0.0 0.0 0.0 34.383488856416385" Properties=species:S:1:pos:R:3:initial_magmoms:R:1 pbc="T T T"
Si      -1.49099112      -1.79812278      -0.43924932       0.00000000
Si       1.67436180      -0.79421895      -1.54808307       0.00000000
Si      -1.28128995       2.01192903      -0.41071100       0.00000000
Si       0.65032435       0.02463048       2.33140815       0.00000000
Si       2.20274099      -2.81294091      -0.35029918       0.00000000
Si      -0.07653042      -3.68204499       0.00151287       0.00000000
Si       0.39482073      -1.09646361      -3.49584003       0.00000000
Si      -3.12015402       1.97785035       1.06585437       0.00000000
Si       0.00231318       3.83952042       0.32313621       0.00000000
Si      -1.50873093      -2.20578003      -2.79066867       0.00000000
