10
Lattice="16.28999089631971 0.0 0.0 0.0 16.28999089631971 0.0 0.0 0.0 34.383488856416385" Properties=species:S:1:pos:R:3:initial_magmoms:R:1 pbc="T T T"
Si       1.60562385       1.74232953       0.30020241       0.00000000
Si      -0.60313725      -0.44689986      -2.47685039       0.00000000
Si       1.00110195      -2.11789548       1.13682193       0.00000000
Si      -1.72423134       1.65165939       1.58239781       0.00000000
Si       0.01501938      -1.66105872       3.25470303       0.00000000
Si      -1.82594610       1.56801024      -2.77942526       0.00000000
Si       1.65708396       0.20036700       3.38245151       0.00000000
Si       3.48776542       1.40636457      -1.02098389       0.00000000
Si       3.18678012       1.30939020       1.94818095       0.00000000
Si       1.34644995      -0.41638869      -3.79164135       0.00000000
