10
Lattice="16.28999089631971 0.0 0.0 0.0 16.28999089631971 0.0 0.0 0.0 34.383488856416385" Properties=species:S:1:pos:R:3:initial_magmoms:R:1 pbc="T T T"
Si       1.35599004      -1.34685720      -1.35924884       0.00000000
Si      -1.35563751      -1.35464382       1.35825172       0.00000000
Si      -1.35351981       1.35814032      -1.36083048       0.00000000
Si       1.35934416       1.35972697       1.35749528       0.00000000
Si      -2.71432125      -2.71303434      -0.00017192       0.00000000
Si       0.00186523      -2.71264338       2.71554070       0.00000000
Si      -2.71360449       0.00254169       2.71547193       0.00000000
Si       2.71735838      -2.71295289      -0.00151287       0.00000000
Si      -2.71218726       2.71877561      -0.00061890       0.00000000
Si       2.71481714       2.71669049       0.00037822       0.00000000
