10
Lattice="16.28999089631971 0.0 0.0 0.0 16.28999089631971 0.0 0.0 0.0 34.383488856416385" Properties=species:S:1:pos:R:3:initial_magmoms:R:1 pbc="T T T"
Si       0.17368398      -1.62613296      -1.64270648       0.00000000
Si      -1.58327397       1.67465828      -0.37409257       0.00000000
Si       0.27772821      -0.39089484       2.29561492       0.00000000
Si       1.63999575       1.55472642      -0.85669949       0.00000000
Si      -0.54670869       3.10809032       1.17632858       0.00000000
Si       2.45579310      -2.12928219      -1.25083764       0.00000000
Si      -0.49257702       1.69183283       3.03847061       0.00000000
Si       0.63146556       1.72582680      -3.01804680       0.00000000
Si       2.60516426      -0.66282381       2.45515439       0.00000000
Si      -0.19743480      -0.45344844      -3.62993571       0.00000000
