10
Lattice="16.28999089631971 0.0 0.0 0.0 16.28999089631971 0.0 0.0 0.0 34.383488856416385" Properties=species:S:1:pos:R:3:initial_magmoms:R:1 pbc="T T T"
Si       1.34465968       1.34144892      -1.36937822       0.00000000
Si      -1.36678419      -1.35330804      -1.33698552       0.00000000
Si      -1.36056759       1.35316143       1.35491652       0.00000000
Si       1.35397756      -1.36060596       1.35660131       0.00000000
Si      -0.25108917       2.42444070      -2.75951377       0.00000000
Si      -0.06888715      -2.65926105      -2.74991046       0.00000000
Si       2.71218889      -0.00231318       2.71265249       0.00000000
Si      -0.00282631       2.71204065       2.71296194       0.00000000
Si      -2.71403359       2.71230129      -0.00134096       0.00000000
Si       2.71497448       2.71158453      -0.00285383       0.00000000
