10
Lattice="16.28999089631971 0.0 0.0 0.0 16.28999089631971 0.0 0.0 0.0 34.383488856416385" Properties=species:S:1:pos:R:3:initial_magmoms:R:1 pbc="T T T"
Si       1.35392706      -1.35853713       1.35900816       0.00000000
Si      -1.35938421       1.35793440       1.35587926       0.00000000
Si       1.34799750       1.36634004      -1.35997777       0.00000000
Si      -1.37031480      -1.37013561      -1.36652439       0.00000000
Si      -0.34839423       2.38013190      -2.64566310       0.00000000
Si      -2.71497448      -2.71158453       0.00285383       0.00000000
Si       2.71207323       0.00104256       2.71540317       0.00000000
Si       2.60095914       0.02640609      -2.82190952       0.00000000
Si       2.71376739      -2.71490769      -0.00330082       0.00000000
Si       2.71262709       2.71661814       0.00374780       0.00000000
