10
Lattice="16.28999089631971 0.0 0.0 0.0 16.28999089631971 0.0 0.0 0.0 34.383488856416385" Properties=species:S:1:pos:R:3:initial_magmoms:R:1 pbc="T T T"
Si      -1.35724696      -1.35637056       1.35673884       0.00000000
Si       1.35677781       1.35995436       1.35440077       0.00000000
Si       1.35674523      -1.35711990      -1.35794227       0.00000000
Si      -1.35826997       1.35723393      -1.35763282       0.00000000
Si       2.70770751       0.00276930       2.71609084       0.00000000
Si       2.71345788      -0.00175932      -2.71444043       0.00000000
Si       0.00073305       2.71261080       2.71615960       0.00000000
Si       2.71443528       2.71492398      -0.00065329       0.00000000
Si      -0.00146610      -2.71541268      -2.71399344       0.00000000
Si       2.71453302      -2.71494027      -0.00030945       0.00000000
