10
Lattice="16.28999089631971 0.0 0.0 0.0 16.28999089631971 0.0 0.0 0.0 34.383488856416385" Properties=species:S:1:pos:R:3:initial_magmoms:R:1 pbc="T T T"
Si       1.35312559      -1.35689184       1.36021158       0.00000000
Si       1.35724696       1.35637056      -1.35673884       0.00000000
Si      -1.35927729       1.35347094       1.36138062       0.00000000
Si      -1.35852866      -1.35855342      -1.35722021       0.00000000
Si       2.69234278       0.02148651       2.70725428       0.00000000
Si      -2.70475317      -0.01449810       2.71849768       0.00000000
Si      -0.00102301       2.71360449      -2.71437166       0.00000000
Si       2.71399219      -0.00074934      -2.71468111       0.00000000
Si      -2.71469007      -2.71419093      -0.00017192       0.00000000
Si      -2.71526022      -0.00107514      -2.71461235       0.00000000
