10
Lattice="16.28999089631971 0.0 0.0 0.0 16.28999089631971 0.0 0.0 0.0 34.383488856416385" Properties=species:S:1:pos:R:3:initial_magmoms:R:1 pbc="T T T"
Si      -2.29506552       0.45950832      -0.06735729       0.00000000
Si       0.55765557      -1.68588468      -1.60333736       0.00000000
Si       1.24559856       1.76319702      -1.03178031       0.00000000
Si       1.02400569      -0.03622896       2.19634973       0.00000000
Si       3.25000161       0.70615521      -0.40036157       0.00000000
Si       2.85262335      -1.47325131      -1.17639735       0.00000000
Si      -2.60463742       2.52781704       0.92109980       0.00000000
Si       3.00596112       1.25498160       1.88782651       0.00000000
Si      -2.87892844       0.99456966      -2.30128820       0.00000000
Si       0.08452881      -0.86493384      -3.83864361       0.00000000
