10
Lattice="16.28999089631971 0.0 0.0 0.0 16.28999089631971 0.0 0.0 0.0 34.383488856416385" Properties=species:S:1:pos:R:3:initial_magmoms:R:1 pbc="T T T"
Si      -1.32037455      -1.36016613       1.36461267       0.00000000
Si       1.35604476      -1.35265644      -1.36175884       0.00000000
Si      -1.35600729       1.36122498      -1.35993651       0.00000000
Si       1.34213310       1.36161594       1.38517401       0.00000000
Si      -2.59488900       0.01938510       2.74163778       0.00000000
Si       2.70697446      -2.70984150      -0.00006877       0.00000000
Si       2.71300176       2.71563256       0.00285383       0.00000000
Si      -0.00073305      -2.71261080      -2.71615960       0.00000000
Si       2.71370223       0.00231318      -2.71681289       0.00000000
Si      -2.71607959       0.00241092      -2.71667536       0.00000000
