10
Lattice="10.86 0.0 0.0 0.0 10.86 0.0 0.0 0.0 10.86" Properties=species:S:1:pos:R:3:initial_magmoms:R:1 pbc="T T T"
Si       1.35750000       1.35750000       1.35750000       0.00000000
Si       1.35750000      -1.35750000      -1.35750000       0.00000000
Si      -1.35750000      -1.35750000       1.35750000       0.00000000
Si      -1.35750000       1.35750000      -1.35750000       0.00000000
Si      -2.41626312      -0.17835378      -2.71551042       0.00000000
Si       2.45880174       0.02927856       2.82263346       0.00000000
Si      -0.01883124      -2.61897588      -2.69731992       0.00000000
Si       2.59428024       0.15609078      -2.79772062       0.00000000
Si      -0.04447170      -2.81192550       2.58676512       0.00000000
Si       0.06527946       2.57619834       2.83699038       0.00000000
