10
Lattice="10.86 0.0 0.0 0.0 10.86 0.0 0.0 0.0 10.86" Properties=species:S:1:pos:R:3:initial_magmoms:R:1 pbc="T T T"
Si       1.33448766      -1.09297212      -1.49589984       0.00000000
Si       1.05876312       1.53585378       1.35801042       0.00000000
Si      -1.65623688      -1.17914622       1.35801042       0.00000000
Si      -1.65623688       1.53585378      -1.35698958       0.00000000
Si       2.39743188      -2.44062210       0.01819050       0.00000000
Si      -0.13655364      -2.34701976      -2.68277838       0.00000000
Si       2.41626312       0.17835378       2.71551042       0.00000000
Si      -0.27735354       2.78273382      -2.42599368       0.00000000
Si      -0.29873688      -2.53664622       2.71551042       0.00000000
Si       2.40649998       2.92688946       0.02706312       0.00000000
