10
Lattice="16.28999089631971 0.0 0.0 0.0 16.28999089631971 0.0 0.0 0.0 34.63643526849801" Properties=species:S:1:pos:R:3:initial_magmoms:R:1 pbc="T T T"
Si       1.34263279       1.35116587       1.37849626       0.00000000
Si      -1.35989354       1.35496470      -1.36180149       0.00000000
Si       1.35681649      -1.36071906      -1.36107412       0.00000000
Si      -1.35966548      -1.36956453       1.37880799       0.00000000
Si      -2.71712747       2.71116910      -0.00367146       0.00000000
Si       2.71183172       2.71667512       0.00200891       0.00000000
Si       2.71085432      -2.71845798      -0.00193964       0.00000000
Si      -0.00117224       2.71227682      -2.71885778       0.00000000
Si       2.71362362      -0.00247067      -2.71840750       0.00000000
Si      -2.71719263      -2.71572126      -0.00010391       0.00000000
