10
Lattice="16.28999089631971 0.0 0.0 0.0 16.28999089631971 0.0 0.0 0.0 34.63643526849801" Properties=species:S:1:pos:R:3:initial_magmoms:R:1 pbc="T T T"
Si       1.38686544       1.29259521       1.35714084       0.00000000
Si       1.37360538      -1.35604476      -1.42109910       0.00000000
Si      -1.32161422      -1.46479680       1.41811832       0.00000000
Si      -1.33952996       1.56942747      -1.28341919       0.00000000
Si      -0.50943717      -2.66936085      -2.25472929       0.00000000
Si       0.48861855       2.95604760      -1.95734069       0.00000000
Si       2.43142911       2.85712821      -0.09525025       0.00000000
Si       0.06175539       2.54599297       2.82021586       0.00000000
Si      -2.65209150      -0.17295093       2.83385916       0.00000000
Si       2.77685856      -0.15027525       2.79420735       0.00000000
