10
Lattice="16.28999089631971 0.0 0.0 0.0 16.28999089631971 0.0 0.0 0.0 34.63643526849801" Properties=species:S:1:pos:R:3:initial_magmoms:R:1 pbc="T T T"
Si       1.35635427       1.35807343       1.35840711       0.00000000
Si      -1.35987291      -1.35683004       1.35764511       0.00000000
Si       1.35852084      -1.35875226      -1.35754120       0.00000000
Si      -1.36502055       1.35987185      -1.36034676       0.00000000
Si       2.71207323      -2.71487847       0.00107373       0.00000000
Si       2.71344159       0.00002471       2.71501313       0.00000000
Si       2.71114470       2.71751791       0.00329046       0.00000000
Si      -0.00200367      -2.71491105       2.71546341       0.00000000
Si      -2.71617831      -2.71512282       0.00159328       0.00000000
Si      -0.00172674       2.71561198       2.71574050       0.00000000
