10
Lattice="16.28999089631971 0.0 0.0 0.0 16.28999089631971 0.0 0.0 0.0 34.63643526849801" Properties=species:S:1:pos:R:3:initial_magmoms:R:1 pbc="T T T"
Si       0.87615765      -2.16450021      -0.13005989       0.00000000
Si      -1.40771664       0.82847193      -1.74491531       0.00000000
Si      -1.09716408      -0.28698093       2.13835080       0.00000000
Si       1.60280568       1.92586081       0.05413678       0.00000000
Si       0.61747245       0.96044048       3.17408470       0.00000000
Si      -2.67571395       2.23028834      -0.07273655       0.00000000
Si       2.06988885      -2.32590153      -2.13533743       0.00000000
Si       0.08047260       2.10117379      -3.13833988       0.00000000
Si      -3.21098706       0.71399070       1.88484659       0.00000000
Si       2.69420310      -0.26302160       2.67940686       0.00000000
