10
Lattice="16.28999089631971 0.0 0.0 0.0 16.28999089631971 0.0 0.0 0.0 34.63643526849801" Properties=species:S:1:pos:R:3:initial_magmoms:R:1 pbc="T T T"
Si      -1.26223065       1.35210258      -1.46370194       0.00000000
Si       1.10908836       1.44945162       1.52961511       0.00000000
Si      -1.48818924      -1.27270186       1.39342457       0.00000000
Si       1.45386621      -1.35827812      -1.46037684       0.00000000
Si       1.52233308      -0.17531298       3.19247666       0.00000000
Si       2.70630657       2.60827335       0.01472049       0.00000000
Si      -0.08047260      -2.10117379       3.13833988       0.00000000
Si      -2.58069438       2.82840012       0.04734803       0.00000000
Si      -2.61415404      -0.01686015      -2.83818036       0.00000000
Si      -2.71358820      -2.76774335       0.00304801       0.00000000
