10
Lattice="16.28999089631971 0.0 0.0 0.0 16.28999089631971 0.0 0.0 0.0 34.63643526849801" Properties=species:S:1:pos:R:3:initial_magmoms:R:1 pbc="T T T"
Si       1.23740469       0.66937239      -1.86981437       0.00000000
Si      -0.31498344      -2.30903615       0.27934301       0.00000000
Si       0.33583464       1.15913124       2.01483720       0.00000000
Si      -2.32821567       0.22664277      -0.26039687       0.00000000
Si       3.40729785       0.39516282      -0.84336303       0.00000000
Si      -2.75675670      -2.19017095       0.48972483       0.00000000
Si       0.94522725       3.03751485      -1.71675587       0.00000000
Si      -2.95679790       1.28104560       1.74321812       0.00000000
Si      -0.07752411      -0.29740653      -3.70499228       0.00000000
Si      -1.41209865       0.75774564       3.47846987       0.00000000
