10
Lattice="16.28999089631971 0.0 0.0 0.0 16.28999089631971 0.0 0.0 0.0 34.63643526849801" Properties=species:S:1:pos:R:3:initial_magmoms:R:1 pbc="T T T"
Si      -1.23740469      -0.66937239       1.86981437       0.00000000
Si      -0.29217744       2.36814246       0.15305849       0.00000000
Si       2.16989316      -0.27420957       1.02645133       0.00000000
Si      -1.31492880      -0.96677892      -1.83517791       0.00000000
Si       3.48239475       1.00748763      -0.47174851       0.00000000
Si       1.34617302      -3.39301871      -0.53509859       0.00000000
Si       2.21508162       1.32211269       2.79287588       0.00000000
Si       0.75974931       3.08666178       2.23457087       0.00000000
Si       2.43646272      -2.64796556       1.46900131       0.00000000
Si      -3.56562036      -0.44272962       1.60941750       0.00000000
