10
Lattice="16.28999089631971 0.0 0.0 0.0 16.28999089631971 0.0 0.0 0.0 34.63643526849801" Properties=species:S:1:pos:R:3:initial_magmoms:R:1 pbc="T T T"
Si       1.77820011      -0.85019139       1.29741924       0.00000000
Si       0.68139441       0.66358944      -2.16459280       0.00000000
Si      -0.93164139       1.85650614       1.26862250       0.00000000
Si      -1.79247015      -1.70165340      -0.12353092       0.00000000
Si       0.43681635      -2.20400442       2.65608960       0.00000000
Si       2.77338879       1.52015022      -1.56905360       0.00000000
Si      -2.29105818       0.52636248       2.65286841       0.00000000
Si       3.16301301      -2.18649267      -0.02712034       0.00000000
Si      -0.92336607      -3.52930995       1.27850081       0.00000000
Si      -1.83171276      -2.34046575      -2.56339694       0.00000000
