10
Lattice="16.28999089631971 0.0 0.0 0.0 16.28999089631971 0.0 0.0 0.0 34.63643526849801" Properties=species:S:1:pos:R:3:initial_magmoms:R:1 pbc="T T T"
Si      -1.46707155      -1.35974259      -1.24757046       0.00000000
Si       1.32531856       1.56395403      -1.23749125       0.00000000
Si       1.14982639      -1.13533155       1.78076404       0.00000000
Si      -1.08059063       0.20996181       2.14572836       0.00000000
Si       2.41782370      -2.53714795       0.10858529       0.00000000
Si      -1.25885487       2.43976959       2.52565563       0.00000000
Si       2.64378229       0.08765649      -2.74854122       0.00000000
Si      -0.07734003      -2.64681549      -2.74653231       0.00000000
Si      -2.75653908       0.06905331      -2.75692324       0.00000000
Si      -0.07092014       2.78907606      -2.74486976       0.00000000
