10
Lattice="16.28999089631971 0.0 0.0 0.0 16.28999089631971 0.0 0.0 0.0 34.63643526849801" Properties=species:S:1:pos:R:3:initial_magmoms:R:1 pbc="T T T"
Si       1.79906760       1.20583467       0.99462043       0.00000000
Si      -2.02031838      -0.06752205       1.27794663       0.00000000
Si       1.03578336      -2.18313693      -0.35737894       0.00000000
Si       0.31850208      -0.03823263      -2.54855033       0.00000000
Si       3.50995743       0.19826559      -0.28218320       0.00000000
Si       2.63904516       0.66674970      -2.37031114       0.00000000
Si      -1.95499548      -2.33321670       2.28905401       0.00000000
Si      -3.74648823       1.12923909       0.04173693       0.00000000
Si       3.35277522      -2.06092935       0.17425600       0.00000000
Si       2.14220016       0.92558151       3.30968642       0.00000000
