10
Lattice="16.28999089631971 0.0 0.0 0.0 16.28999089631971 0.0 0.0 0.0 34.63643526849801" Properties=species:S:1:pos:R:3:initial_magmoms:R:1 pbc="T T T"
Si      -1.22539896      -1.49504148      -1.39037656       0.00000000
Si       1.40771664      -0.82847193       1.74491531       0.00000000
Si       1.48818924       1.27270186      -1.39342457       0.00000000
Si      -1.26799731       1.40181640       1.67217876       0.00000000
Si      -2.41782370       2.53714795      -0.10858529       0.00000000
Si       3.01052232       1.09738888       1.79905209       0.00000000
Si      -2.63077473      -2.63087802       0.19493397       0.00000000
Si       2.59727760       2.72215348       0.13619054       0.00000000
Si      -2.49516374      -0.10966754      -2.85511759       0.00000000
Si       0.22595859       2.62480444      -2.85712651       0.00000000
