10
Lattice="16.28999089631971 0.0 0.0 0.0 16.28999089631971 0.0 0.0 0.0 34.63643526849801" Properties=species:S:1:pos:R:3:initial_magmoms:R:1 pbc="T T T"
Si       0.39294738      -0.45036963       2.26553586       0.00000000
Si       1.61412723       1.72287927      -0.36943243       0.00000000
Si      -2.20947786       0.84664017      -0.34698800       0.00000000
Si      -0.05123205      -1.80918369      -1.60131257       0.00000000
Si       2.68205076       0.24636996       2.20987508       0.00000000
Si      -2.34869220       0.40539294      -2.68948607       0.00000000
Si      -0.47379465      -2.59331913       2.61765006       0.00000000
Si       3.52668726       0.56436705      -1.07438819       0.00000000
Si      -2.17934136      -1.93792356      -2.50414640       0.00000000
Si      -0.62991801       1.47256713       3.51175550       0.00000000
