10
Lattice="16.28999089631971 0.0 0.0 0.0 16.28999089631971 0.0 0.0 0.0 34.63643526849801" Properties=species:S:1:pos:R:3:initial_magmoms:R:1 pbc="T T T"
Si      -1.32335073      -1.88986806       0.34865055       0.00000000
Si       2.01292272      -0.29203083       1.15872795       0.00000000
Si      -0.57189303       2.00668365       1.18830749       0.00000000
Si      -0.57037806       0.94558563      -2.16422423       0.00000000
Si      -1.77389955       2.41329834      -0.78655925       0.00000000
Si       3.46239063       1.14645762      -0.00602674       0.00000000
Si      -3.53774654      -1.03337244       0.48335172       0.00000000
Si       2.91654531      -2.36602476       0.47095187       0.00000000
Si       2.57341275      -2.08577160      -1.84411412       0.00000000
Si       3.16050435       0.23708466      -2.18749993       0.00000000
