10
Lattice="16.28999089631971 0.0 0.0 0.0 16.28999089631971 0.0 0.0 0.0 34.63643526849801" Properties=species:S:1:pos:R:3:initial_magmoms:R:1 pbc="T T T"
Si      -2.01292272       0.29203083      -1.15872795       0.00000000
Si       1.44946791       1.43848845      -1.16475470       0.00000000
Si       0.90362259      -2.07399393      -0.68777608       0.00000000
Si      -0.13139514       0.60144309       2.33681768       0.00000000
Si      -2.58481575       2.29871448       0.02957953       0.00000000
Si       0.56049003      -1.79374077      -3.00284207       0.00000000
Si       1.14758163       0.52911549      -3.34622788       0.00000000
Si      -0.22172319      -3.48478938       0.79029999       0.00000000
Si       1.75430268      -0.59926023       3.08454947       0.00000000
Si       3.31907121       1.44243063       0.31678501       0.00000000
