10
Lattice="16.28999089631971 0.0 0.0 0.0 16.28999089631971 0.0 0.0 0.0 34.63643526849801" Properties=species:S:1:pos:R:3:initial_magmoms:R:1 pbc="T T T"
Si       1.36941885       1.33346682       1.38611628       0.00000000
Si      -1.34956134      -1.38280923       1.38556209       0.00000000
Si       1.35754344      -1.30701186      -1.51604801       0.00000000
Si      -1.38999312       1.44287046      -1.43706650       0.00000000
Si       2.71999017       2.66773185       0.01058144       0.00000000
Si      -2.71510317       2.69626822       0.02600851       0.00000000
Si      -2.70653463      -2.72362284       0.01713119       0.00000000
Si       2.70220149      -2.73202848       0.00021475       0.00000000
Si       0.01089801       2.69221908       2.74365748       0.00000000
Si      -2.70528030      -0.02290374       2.74525076       0.00000000
