10
Lattice="16.28999089631971 0.0 0.0 0.0 16.28999089631971 0.0 0.0 0.0 34.63643526849801" Properties=species:S:1:pos:R:3:initial_magmoms:R:1 pbc="T T T"
Si       1.30219002      -1.22725602       1.51832362       0.00000000
Si      -1.34343630      -1.35648459      -1.36564613       0.00000000
Si       1.36756179       1.35940050      -1.36311767       0.00000000
Si      -1.33718094       1.36964691       1.42726439       0.00000000
Si       0.54240813       2.38022964       2.48236007       0.00000000
Si       2.25719127       0.64237986       2.77985258       0.00000000
Si      -2.70488934      -2.71453302      -0.00249382       0.00000000
Si       2.71924083      -2.70057249       0.03089572       0.00000000
Si      -2.70141957      -0.00125433      -2.72259852       0.00000000
Si      -2.70606222       2.71808424       0.02157851       0.00000000
