10
Lattice="16.28999089631971 0.0 0.0 0.0 16.28999089631971 0.0 0.0 0.0 34.63643526849801" Properties=species:S:1:pos:R:3:initial_magmoms:R:1 pbc="T T T"
Si      -0.87615765       2.16450021       0.13005989       0.00000000
Si       1.19373120      -0.16140132      -2.00527754       0.00000000
Si       1.58498442      -0.29655945       1.70781967       0.00000000
Si      -0.68585787      -1.17198405      -3.06037322       0.00000000
Si      -1.97332173       1.87751928       2.26841069       0.00000000
Si       0.11417661      -1.53095049       3.20917143       0.00000000
Si      -2.14285176      -2.41916274      -1.52687883       0.00000000
Si       1.81804545       1.90147861       2.80946674       0.00000000
Si       2.90851434      -1.89925110      -1.70778503       0.00000000
Si       3.58816572      -1.48926438       0.62681592       0.00000000
