10
Lattice="16.28999089631971 0.0 0.0 0.0 16.28999089631971 0.0 0.0 0.0 34.63643526849801" Properties=species:S:1:pos:R:3:initial_magmoms:R:1 pbc="T T T"
Si       1.65332097      -0.13455540      -1.66140682       0.00000000
Si       1.03700511      -0.90093474       1.90649437       0.00000000
Si      -1.74812877      -1.54108287      -0.31380628       0.00000000
Si      -0.73309887       2.20530762       0.52179819       0.00000000
Si       3.26492325       1.02296313      -0.39821532       0.00000000
Si      -2.76444558       1.55867607       1.60578067       0.00000000
Si       3.30398667      -0.60098697       1.39733849       0.00000000
Si       2.28615489      -2.40130890      -1.50814051       0.00000000
Si      -2.52346761      -2.04227730       1.88425777       0.00000000
Si       0.07806168       0.14206509       3.80301344       0.00000000
