10
Lattice="16.28999089631971 0.0 0.0 0.0 16.28999089631971 0.0 0.0 0.0 34.63643526849801" Properties=species:S:1:pos:R:3:initial_magmoms:R:1 pbc="T T T"
Si       0.82424142      -0.29356209      -2.22383357       0.00000000
Si      -1.69533288       1.69475363       0.05108877       0.00000000
Si       1.87191648      -0.13445766       1.54551324       0.00000000
Si      -0.55998504      -2.27234097       0.73567830       0.00000000
Si      -1.96555140       1.21489095       2.48042043       0.00000000
Si       1.20384729      -3.31916895      -0.43063504       0.00000000
Si       2.98023921      -1.97200224       0.38959084       0.00000000
Si       0.46260342      -2.62184292      -2.58703143       0.00000000
Si       3.04033302       0.55221471      -2.39150865       0.00000000
Si       3.12728904       1.95289311       1.45445400       0.00000000
