10
Lattice="16.28999089631971 0.0 0.0 0.0 16.28999089631971 0.0 0.0 0.0 34.63643526849801" Properties=species:S:1:pos:R:3:initial_magmoms:R:1 pbc="T T T"
Si       0.95894343      -1.04299983      -1.89651907       0.00000000
Si       0.36163800       2.32828083       0.36319786       0.00000000
Si       0.74124387      -0.69732603       2.15639639       0.00000000
Si      -2.35730961      -0.20921247      -0.58746891       0.00000000
Si      -1.02258846       0.34950195       3.32270973       0.00000000
Si      -0.46260342       2.62184292       2.58703143       0.00000000
Si      -0.72330858       3.47678808      -1.36000039       0.00000000
Si      -0.07806168      -0.14206509      -3.80301344       0.00000000
Si      -2.84250726       1.41661098      -2.19723277       0.00000000
Si       0.62723016      -3.38041935      -1.80958157       0.00000000
