10
Lattice="16.28999089631971 0.0 0.0 0.0 16.28999089631971 0.0 0.0 0.0 34.63643526849801" Properties=species:S:1:pos:R:3:initial_magmoms:R:1 pbc="T T T"
Si      -1.02640032       2.04297125      -0.39676059       0.00000000
Si       2.19263400       0.73343444      -0.56350048       0.00000000
Si      -0.50428953      -1.85666645      -1.47956543       0.00000000
Si      -0.41733351      -0.45598805       2.36639722       0.00000000
Si       1.87898634      -0.44080740       2.99851251       0.00000000
Si       3.13483131      -1.30890639      -1.24213254       0.00000000
Si      -0.03785796       2.74658522      -2.39137010       0.00000000
Si       3.23234325       1.01113007       1.51998617       0.00000000
Si       0.76432680      -3.67668299      -0.50309450       0.00000000
Si      -3.15450963       1.91423138      -1.29959441       0.00000000
