10
Lattice="16.28999089631971 0.0 0.0 0.0 16.28999089631971 0.0 0.0 0.0 34.63643526849801" Properties=species:S:1:pos:R:3:initial_magmoms:R:1 pbc="T T T"
Si      -0.16816167      -0.13284495      -2.27322658       0.00000000
Si       1.75423752       0.94403808       1.13287184       0.00000000
Si      -0.99851184      -1.75672989       1.16612630       0.00000000
Si      -1.38813606       1.94991300      -0.37580696       0.00000000
Si      -2.45726505      -0.82958454      -2.21756580       0.00000000
Si       0.36316926       2.31798555       2.48414384       0.00000000
Si      -2.38332474      -0.42042861       2.49066589       0.00000000
Si      -0.60867585       2.38495374      -2.65575158       0.00000000
Si      -3.48013044       1.09335222      -0.97134616       0.00000000
Si       3.04284168      -0.41764302       2.49173615       0.00000000
