10
Lattice="16.28999089631971 0.0 0.0 0.0 16.28999089631971 0.0 0.0 0.0 34.63643526849801" Properties=species:S:1:pos:R:3:initial_magmoms:R:1 pbc="T T T"
Si      -1.35475785      -1.35715248      -1.38694755       0.00000000
Si       1.36125756       1.36094805      -1.38930283       0.00000000
Si       1.48001166      -1.29490839       1.41791254       0.00000000
Si      -1.46577420       1.27272141       1.47021359       0.00000000
Si       2.69762400       2.71161711      -0.02424552       0.00000000
Si      -2.71821456      -2.69383006      -0.00488374       0.00000000
Si       2.71798650      -2.70797955      -0.02989126       0.00000000
Si      -2.71577106       2.71230129      -0.00907475       0.00000000
Si      -2.71023246       0.00320913      -2.74639376       0.00000000
Si       0.00387702       2.71490769      -2.74642840       0.00000000
