10
Lattice="16.28999089631971 0.0 0.0 0.0 16.28999089631971 0.0 0.0 0.0 34.63643526849801" Properties=species:S:1:pos:R:3:initial_magmoms:R:1 pbc="T T T"
Si      -1.91256003       1.15851222       0.70495576       0.00000000
Si       1.81612323       1.46973267      -0.24865511       0.00000000
Si       0.91364094      -1.10315880       1.89527216       0.00000000
Si      -0.35826597      -1.51135362      -1.80750338       0.00000000
Si      -0.84463650      -0.31799709       3.28426326       0.00000000
Si       3.51974772      -0.25542720      -0.40008569       0.00000000
Si       1.12795218      -0.56280321      -3.39620829       0.00000000
Si      -3.52668726      -0.56436705       1.07438819       0.00000000
Si       0.68082426      -3.40539192       1.38982238       0.00000000
Si      -0.35888499      -3.68308755      -0.69366428       0.00000000
