10
Lattice="16.28999089631971 0.0 0.0 0.0 16.28999089631971 0.0 0.0 0.0 34.63643526849801" Properties=species:S:1:pos:R:3:initial_magmoms:R:1 pbc="T T T"
Si       1.91256003      -1.15851222      -0.70495576       0.00000000
Si      -0.70033968       1.81467342      -1.33623978       0.00000000
Si      -1.61412723      -1.72287927       0.36943243       0.00000000
Si       0.62740935       1.04128938       2.19678250       0.00000000
Si       1.06792353      -1.47650931       2.57930750       0.00000000
Si      -1.10902320       2.72919402       2.10187861       0.00000000
Si      -1.22117985      -2.17324890       2.63496829       0.00000000
Si      -2.38936833       2.74636368       0.11599749       0.00000000
Si       1.18068291       3.27771090      -1.50433050       0.00000000
Si       2.82620097      -2.26167102       1.19031640       0.00000000
