10
Lattice="16.28999089631971 0.0 0.0 0.0 16.28999089631971 0.0 0.0 0.0 34.63643526849801" Properties=species:S:1:pos:R:3:initial_magmoms:R:1 pbc="T T T"
Si       0.73125810      -1.73304423       1.49785348       0.00000000
Si       1.67547537       1.60326180      -0.67021540       0.00000000
Si      -0.68245326      -0.86755653      -2.16024104       0.00000000
Si      -1.95864444       0.76290957       1.41247462       0.00000000
Si      -2.97215937      -1.41607341       1.44596807       0.00000000
Si      -1.23572682      -3.10397805       1.54087196       0.00000000
Si       0.34497333       3.58831233      -0.99413552       0.00000000
Si      -3.06647847       2.18880585      -0.18949604       0.00000000
Si      -1.23694857       1.07597079      -3.48934571       0.00000000
Si       1.26529317      -2.04825573      -3.03959135       0.00000000
