10
Lattice="16.28999089631971 0.0 0.0 0.0 16.28999089631971 0.0 0.0 0.0 34.63643526849801" Properties=species:S:1:pos:R:3:initial_magmoms:R:1 pbc="T T T"
Si      -1.33335279       1.29898089       1.59839618       0.00000000
Si      -0.76768254      -1.93297140      -1.31830299       0.00000000
Si       0.89516808       1.95795279      -1.20175132       0.00000000
Si       1.38794058      -1.37456649       1.58534170       0.00000000
Si      -2.69579952      -2.67576282       0.07176673       0.00000000
Si      -2.75573043       2.61797960       0.27250923       0.00000000
Si       2.68550424       2.73518452       0.18168206       0.00000000
Si      -1.01618649       3.64008914      -0.84938285       0.00000000
Si       2.78058897      -2.73945672       0.17877260       0.00000000
Si       1.04249484      -3.65910867      -1.08834588       0.00000000
