10
Lattice="16.28999089631971 0.0 0.0 0.0 16.28999089631971 0.0 0.0 0.0 34.63643526849801" Properties=species:S:1:pos:R:3:initial_magmoms:R:1 pbc="T T T"
Si       0.08922033       1.60107080       1.69729019       0.00000000
Si      -1.82814851      -1.38662013       0.67392150       0.00000000
Si       0.27021852       0.47986267      -2.42933165       0.00000000
Si       1.94281056      -0.09891940       1.86209044       0.00000000
Si       1.96555140      -1.21489095      -2.48042043       0.00000000
Si      -0.48861855      -2.95604760       1.95734069       0.00000000
Si       0.89824689      -1.66345239       3.31448153       0.00000000
Si       1.39198050       3.51465710       0.92513970       0.00000000
Si      -1.71363632       0.99184760       3.36343323       0.00000000
Si      -3.45542570      -0.18061212       2.17402119       0.00000000
