10
Lattice="16.28999089631971 0.0 0.0 0.0 16.28999089631971 0.0 0.0 0.0 34.63643526849801" Properties=species:S:1:pos:R:3:initial_magmoms:R:1 pbc="T T T"
Si       1.74935052       0.73023183      -1.41250926       0.00000000
Si      -0.95500125      -1.86963588      -1.26152895       0.00000000
Si      -1.71478314       1.73784978      -0.29749251       0.00000000
Si       0.67965138       0.40998672       2.33460095       0.00000000
Si       0.46986876       2.08122669      -2.80392491       0.00000000
Si      -2.25719127      -0.64237986      -2.77985258       0.00000000
Si       2.62902681       2.52578079      -0.17823920       0.00000000
Si       2.91043656       1.48243887       1.94788494       0.00000000
Si      -2.90851434       1.89925110       1.70778503       0.00000000
Si      -3.59437221       0.72726705      -1.35258819       0.00000000
