10
Lattice="16.28999089631971 0.0 0.0 0.0 16.28999089631971 0.0 0.0 0.0 34.63643526849801" Properties=species:S:1:pos:R:3:initial_magmoms:R:1 pbc="T T T"
Si       1.35626364      -1.35808646       1.36090094       0.00000000
Si      -1.35897696       1.35834002       1.36051994       0.00000000
Si       1.36010236       1.37694320      -1.37296135       0.00000000
Si      -1.37621178      -1.36586016      -1.37462044       0.00000000
Si       2.71414762       2.70925343       0.00200891       0.00000000
Si       2.71464609      -2.71191915       0.00284019       0.00000000
Si      -2.71399545       2.71273949       0.00955966       0.00000000
Si      -2.71959921      -2.71284768       0.00658093       0.00000000
Si      -0.00091224       2.71404269       2.71861532       0.00000000
Si       2.71445061      -0.00054083       2.71830360       0.00000000
