10
Lattice="16.28999089631971 0.0 0.0 0.0 16.28999089631971 0.0 0.0 0.0 34.63643526849801" Properties=species:S:1:pos:R:3:initial_magmoms:R:1 pbc="T T T"
Si      -1.34866539      -1.33998282      -1.35195434       0.00000000
Si       1.34138376       1.35092970      -1.35725372       0.00000000
Si       1.35501849      -1.35439947       1.35096028       0.00000000
Si      -1.35829278       1.35713619       1.35130664       0.00000000
Si      -2.69996976       0.01184283      -2.68286358       0.00000000
Si       2.62637154      -0.01510083      -2.78824152       0.00000000
Si       2.71308321       0.00130320       2.70905566       0.00000000
Si      -0.00218286      -2.71311905       2.70902103       0.00000000
Si      -0.00180819       2.71759554       2.70867466       0.00000000
Si      -2.71728603       0.00091224       2.70919421       0.00000000
