10
Lattice="16.28999089631971 0.0 0.0 0.0 16.28999089631971 0.0 0.0 0.0 34.63643526849801" Properties=species:S:1:pos:R:3:initial_magmoms:R:1 pbc="T T T"
Si      -1.35692442       1.35731864       1.35695238       0.00000000
Si       1.35775521      -1.35723636       1.35674456       0.00000000
Si      -1.35549090      -1.35989252      -1.35688311       0.00000000
Si       1.35720135       1.35871958      -1.35806075       0.00000000
Si       0.00218286       2.71311905      -2.70902103       0.00000000
Si      -0.00342090      -2.71246812      -2.71199976       0.00000000
Si      -0.00024435      -2.71254957       2.71376622       0.00000000
Si       2.71397916      -0.00012380       2.71445895       0.00000000
Si      -0.00073305       2.71377065       2.71494386       0.00000000
Si      -2.71430496      -0.00198086       2.71477068       0.00000000
