10
Lattice="16.28999089631971 0.0 0.0 0.0 16.28999089631971 0.0 0.0 0.0 34.63643526849801" Properties=species:S:1:pos:R:3:initial_magmoms:R:1 pbc="T T T"
Si      -1.77606612      -0.86903892      -1.34209334       0.00000000
Si       0.81280584       1.76919174      -1.43765532       0.00000000
Si       1.61170002      -1.86968475      -0.01607131       0.00000000
Si      -0.67250007       1.63071045       1.75281242       0.00000000
Si      -0.31602600      -0.03753216       3.31536680       0.00000000
Si      -1.63983285      -1.94092092       2.21410073       0.00000000
Si       2.19928032       0.42381693      -2.77659675       0.00000000
Si      -0.53809128      -2.28211008      -2.78989715       0.00000000
Si      -2.56554468      -2.66303870      -0.02414161       0.00000000
Si       2.02176819      -0.60818715       3.15555420       0.00000000
