10
Lattice="16.28999089631971 0.0 0.0 0.0 16.28999089631971 0.0 0.0 0.0 34.63643526849801" Properties=species:S:1:pos:R:3:initial_magmoms:R:1 pbc="T T T"
Si      -2.24052660      -0.72899283      -0.31370237       0.00000000
Si      -0.39014550       1.43838256      -1.90330782       0.00000000
Si       1.56706542      -1.75415511      -0.56886913       0.00000000
Si       1.58848677      -0.02939205       2.62637329       0.00000000
Si      -0.19979685       1.74098560       2.66269446       0.00000000
Si       0.07043796      -3.58870233       0.01620986       0.00000000
Si       3.21576396      -1.23540006       1.12627360       0.00000000
Si      -2.50356123       2.35634035      -1.42002537       0.00000000
Si      -0.93351474      -2.94396042       2.24762881       0.00000000
Si      -3.85691814       0.90440288       0.05850097       0.00000000
