10
Lattice="16.28999089631971 0.0 0.0 0.0 16.28999089631971 0.0 0.0 0.0 34.63643526849801" Properties=species:S:1:pos:R:3:initial_magmoms:R:1 pbc="T T T"
Si      -1.05482637      -1.62548136       1.31352921       0.00000000
Si       1.68946589       1.05160095       1.28955040       0.00000000
Si      -1.74441465       1.73328858       0.10064751       0.00000000
Si       0.07398918      -0.73666638      -2.58889921       0.00000000
Si      -1.95061347       0.47335482      -2.36452426       0.00000000
Si      -2.33981415      -0.25945083       2.74451702       0.00000000
Si       0.39709408       2.44643220       2.74318351       0.00000000
Si       2.51244647       2.93868342       0.06216918       0.00000000
Si       0.39289990      -2.94617682       2.71924972       0.00000000
Si      -3.62841831       1.10223027       1.38565270       0.00000000
