10
Lattice="16.28999089631971 0.0 0.0 0.0 16.28999089631971 0.0 0.0 0.0 34.63643526849801" Properties=species:S:1:pos:R:3:initial_magmoms:R:1 pbc="T T T"
Si      -1.88400366      -0.63105831       1.28500519       0.00000000
Si       0.72194022       1.95533757       1.27350589       0.00000000
Si       1.74441465      -1.73328858      -0.10064751       0.00000000
Si      -0.20619882      -1.25993376      -2.46517177       0.00000000
Si      -0.59539950      -1.99273941       2.64386951       0.00000000
Si       2.14150873       0.71314362       2.64253600       0.00000000
Si       0.68958828      -3.35876994       1.21288170       0.00000000
Si      -0.41710545       0.82898181      -3.55867927       0.00000000
Si       3.43388054      -0.68168763       1.18890289       0.00000000
Si       2.37979048       3.11629329       0.11025130       0.00000000
