10
Lattice="16.28999089631971 0.0 0.0 0.0 16.28999089631971 0.0 0.0 0.0 34.63643526849801" Properties=species:S:1:pos:R:3:initial_magmoms:R:1 pbc="T T T"
Si       1.35764118       1.36122498       1.35130664       0.00000000
Si      -1.35754344       1.35511623      -1.35851102       0.00000000
Si       1.35653346      -1.35884664      -1.35923839       0.00000000
Si      -1.37911140      -1.36371735       1.36301376       0.00000000
Si       2.71313198       2.71300176       0.00076200       0.00000000
Si      -2.71595025       2.71080261       0.00377537       0.00000000
Si      -0.00071676       2.71301805      -2.71677959       0.00000000
Si      -2.71547784      -2.71438641      -0.00204355       0.00000000
Si       2.71405868      -0.00149868      -2.71636395       0.00000000
Si      -2.71590138      -0.00195480      -2.71667568       0.00000000
