10
Lattice="16.28999089631971 0.0 0.0 0.0 16.28999089631971 0.0 0.0 0.0 34.63643526849801" Properties=species:S:1:pos:R:3:initial_magmoms:R:1 pbc="T T T"
Si      -1.35619137      -1.35645201      -1.35799148       0.00000000
Si       1.35747828      -1.35769005       1.35764511       0.00000000
Si      -1.35606105       1.36117611       1.35670993       0.00000000
Si       1.35837423       1.35873261      -1.35747193       0.00000000
Si       0.00066789      -2.70775149       2.71612150       0.00000000
Si      -2.71344159       2.71513575      -0.00041564       0.00000000
Si       2.71471221      -2.71389445      -0.00048491       0.00000000
Si       0.00073305      -2.71377065      -2.71494386       0.00000000
Si      -2.71437012       0.00026064      -2.71477068       0.00000000
Si      -2.71357191      -2.71575151      -0.00017318       0.00000000
