10
Lattice="16.28999089631971 0.0 0.0 0.0 16.28999089631971 0.0 0.0 0.0 34.63643526849801" Properties=species:S:1:pos:R:3:initial_magmoms:R:1 pbc="T T T"
Si       0.30908646       0.84405006       2.12844477       0.00000000
Si      -2.08270908       0.53667405      -0.86767782       0.00000000
Si       1.72384038       0.97770951      -1.25061847       0.00000000
Si       0.53898723      -2.31757830       0.01569031       0.00000000
Si       1.14512184      -2.48420871      -2.21701019       0.00000000
Si       0.92455524      -1.30373757       3.15881003       0.00000000
Si       3.47636486       0.92652633       0.32565195       0.00000000
Si      -3.56892723      -0.41187636       0.72102708       0.00000000
Si       1.92907192      -0.42842700      -3.11153126       0.00000000
Si      -2.22242841      -0.75652389      -2.84919476       0.00000000
