10
Lattice="16.28999089631971 0.0 0.0 0.0 16.28999089631971 0.0 0.0 0.0 34.63643526849801" Properties=species:S:1:pos:R:3:initial_magmoms:R:1 pbc="T T T"
Si      -1.33376004      -1.34586351      -1.36304494       0.00000000
Si      -1.35448092       1.35682668       1.35383510       0.00000000
Si       1.36001952      -1.35816246       1.35397365       0.00000000
Si       1.35643572       1.34405532      -1.37541361       0.00000000
Si       2.66325210      -0.13341510      -2.72581624       0.00000000
Si      -2.65691529       0.04698036      -2.73958423       0.00000000
Si      -2.71243161       0.00006516       2.71064894       0.00000000
Si       0.00272043      -2.71482624       2.71047576       0.00000000
Si      -2.71169856       2.71368594      -0.01028703       0.00000000
Si       0.00252495       2.71438641       2.71102994       0.00000000
