10
Lattice="16.28999089631971 0.0 0.0 0.0 16.28999089631971 0.0 0.0 0.0 34.63643526849801" Properties=species:S:1:pos:R:3:initial_magmoms:R:1 pbc="T T T"
Si       1.35754344      -1.35511623       1.35851102       0.00000000
Si       1.35682668       1.35790182      -1.35826857       0.00000000
Si      -1.35835794      -1.35707103      -1.35816466       0.00000000
Si      -1.35840681       1.35568638       1.36228640       0.00000000
Si       2.71518462       0.00610875       2.70981766       0.00000000
Si       2.71407690      -2.71396287      -0.00072737       0.00000000
Si       2.71463076       2.71399545      -0.00010391       0.00000000
Si       2.71451673       0.00006516      -2.71470140       0.00000000
Si      -0.00076563      -2.71373481      -2.71553268       0.00000000
Si      -0.00096111       2.71547784      -2.71497850       0.00000000
