10
Lattice="16.28999089631971 0.0 0.0 0.0 16.28999089631971 0.0 0.0 0.0 34.63643526849801" Properties=species:S:1:pos:R:3:initial_magmoms:R:1 pbc="T T T"
Si       1.07644320       2.02675293       0.32184194       0.00000000
Si      -1.48111938       0.06507855       1.79773590       0.00000000
Si      -0.15571611       0.46651302      -2.28475909       0.00000000
Si       1.75440042      -1.47486402       0.55920556       0.00000000
Si       1.90202040       1.63483182      -1.89967099       0.00000000
Si      -2.91455793      -1.71339849       1.29879778       0.00000000
Si       0.16003296      -1.57623669      -3.37487223       0.00000000
Si       2.82213077       1.79033616       1.77608812       0.00000000
Si       2.95050249      -0.51043086       2.32566475       0.00000000
Si      -2.48547933       2.17336293       2.11372428       0.00000000
