10
Lattice="16.28999089631971 0.0 0.0 0.0 16.28999089631971 0.0 0.0 0.0 34.63643526849801" Properties=species:S:1:pos:R:3:initial_magmoms:R:1 pbc="T T T"
Si       0.60025392      -1.78579125       1.43006994       0.00000000
Si      -0.37326906      -1.38707721      -1.92405505       0.00000000
Si       1.68407649       1.65780072      -0.51133798       0.00000000
Si      -1.94774643       1.18069920       0.87935031       0.00000000
Si       1.30693041      -0.52390269      -3.36898403       0.00000000
Si       1.56898764       1.76940351      -2.87562237       0.00000000
Si      -1.21586931      -3.25552392       1.67872505       0.00000000
Si      -1.26529317       2.04825573       3.03959135       0.00000000
Si       1.32879159      -1.03659786       3.52540226       0.00000000
Si      -2.55941964      -1.04901084      -2.80922429       0.00000000
