10
Lattice="16.28999089631971 0.0 0.0 0.0 16.28999089631971 0.0 0.0 0.0 34.63643526849801" Properties=species:S:1:pos:R:3:initial_magmoms:R:1 pbc="T T T"
Si       1.35479043       1.35772263      -1.37652198       0.00000000
Si      -1.35915615      -1.36132272      -1.37520579       0.00000000
Si       1.43047377      -1.34086248       1.38154427       0.00000000
Si      -1.43847216       1.37228589       1.35175691       0.00000000
Si       2.71231758       2.70387936       0.00238992       0.00000000
Si       2.71443528      -2.71090035      -0.02767453       0.00000000
Si      -2.72577312      -2.70089829       0.01530931       0.00000000
Si      -2.71795392       2.72328075      -0.03965874       0.00000000
Si       2.71388142      -0.00301365      -2.73759610       0.00000000
Si      -2.71621089       0.00019548      -2.73714583       0.00000000
