10
Lattice="16.28999089631971 0.0 0.0 0.0 16.28999089631971 0.0 0.0 0.0 34.63643526849801" Properties=species:S:1:pos:R:3:initial_magmoms:R:1 pbc="T T T"
Si       0.61498008       0.19039752      -2.31683245       0.00000000
Si      -1.33050204       1.98505053      -0.32392012       0.00000000
Si      -1.67547537      -1.60326180       0.67021540       0.00000000
Si       1.62877194       0.03251484       2.13540670       0.00000000
Si      -0.68219262       2.89222434       1.80549447       0.00000000
Si      -2.35792863      -2.47081833      -1.49002564       0.00000000
Si       1.27389429      -1.99371681      -2.88071393       0.00000000
Si       2.17912959       1.99764270      -2.50179112       0.00000000
Si      -3.41324370       1.28974446      -1.32390921       0.00000000
Si       3.12539940       1.86706206       1.55032771       0.00000000
