10
Lattice="16.28999089631971 0.0 0.0 0.0 16.28999089631971 0.0 0.0 0.0 34.63643526849801" Properties=species:S:1:pos:R:3:initial_magmoms:R:1 pbc="T T T"
Si      -1.56706542       1.75415511       0.56886913       0.00000000
Si       1.64869854       0.51875505       1.69514273       0.00000000
Si      -1.49662746      -1.83454722       0.58507899       0.00000000
Si       0.76241991      -0.12421125      -2.45295372       0.00000000
Si       0.02142135       1.72476306       3.19524242       0.00000000
Si       0.11533320      -3.60799065       1.08619922       0.00000000
Si      -2.50058016      -1.18980531       2.81649794       0.00000000
Si      -3.80759202       1.02516228       0.25516676       0.00000000
Si      -3.12539940      -1.86706206      -1.55032771       0.00000000
Si      -1.95721092       3.19253768      -1.33443869       0.00000000
