10
Lattice="16.28999089631971 0.0 0.0 0.0 16.28999089631971 0.0 0.0 0.0 34.63643526849801" Properties=species:S:1:pos:R:3:initial_magmoms:R:1 pbc="T T T"
Si       2.02031838       0.06752205      -1.27794663       0.00000000
Si      -0.07737750       1.46926026       1.90943847       0.00000000
Si      -1.72616985       1.19676114      -1.23620970       0.00000000
Si       0.06532290      -2.26569465       1.01110738       0.00000000
Si      -0.67518792      -1.72939527       3.17380761       0.00000000
Si      -3.48787538       1.36132272       0.27768046       0.00000000
Si       0.71970849       0.14470407       3.68698132       0.00000000
Si      -2.29177331       2.32575588       2.04413964       0.00000000
Si       1.24597323       3.35912832       1.56078792       0.00000000
Si       3.81938598       1.27335672      -0.28332620       0.00000000
