10
Lattice="16.28999089631971 0.0 0.0 0.0 16.28999089631971 0.0 0.0 0.0 34.63643526849801" Properties=species:S:1:pos:R:3:initial_magmoms:R:1 pbc="T T T"
Si       1.00284987      -0.89117703      -1.88408459       0.00000000
Si       0.34630422       2.29517955       0.29080767       0.00000000
Si      -2.16442854      -0.97365330      -0.08129176       0.00000000
Si       1.01758091      -0.72563805       2.02249186       0.00000000
Si      -0.83637000       2.48034798       2.33030603       0.00000000
Si      -1.54895976      -3.12144093       0.94907349       0.00000000
Si      -0.74967462      -0.83999385      -3.46035500       0.00000000
Si      -0.90400608      -1.79823681       3.03460370       0.00000000
Si       1.60715348      -3.09860235      -1.38258336       0.00000000
Si      -2.47351500      -1.81770336      -2.20973653       0.00000000
