10
Lattice="16.28999089631971 0.0 0.0 0.0 16.28999089631971 0.0 0.0 0.0 34.63643526849801" Properties=species:S:1:pos:R:3:initial_magmoms:R:1 pbc="T T T"
Si       0.00754227      -1.76516811      -1.57471177       0.00000000
Si       1.72533906       1.42078122      -0.88118604       0.00000000
Si      -2.12672955       1.13109615       0.09511170       0.00000000
Si       0.79179174      -0.95734701       2.57875332       0.00000000
Si       1.58612472       0.97953399      -3.22368410       0.00000000
Si       1.75547556      -1.36378251      -3.03834444       0.00000000
Si      -1.53715698      -1.24186815      -3.30996351       0.00000000
Si       1.28997252       3.66365358      -0.25198021       0.00000000
Si       3.93481692       0.57414105      -0.53419804       0.00000000
Si      -0.32997024      -3.99214143      -0.77571804       0.00000000
