10
Lattice="16.28999089631971 0.0 0.0 0.0 16.28999089631971 0.0 0.0 0.0 34.63643526849801" Properties=species:S:1:pos:R:3:initial_magmoms:R:1 pbc="T T T"
Si       1.35666215      -1.35624024       1.36135121       0.00000000
Si      -1.35075028      -1.37339361      -1.35107111       0.00000000
Si      -1.35860219       1.35785295       1.35961939       0.00000000
Si       1.35597797       1.37305152      -1.36808454       0.00000000
Si       2.70690767      -2.70550836       0.00464128       0.00000000
Si      -2.71261962      -2.71169856       0.00218210       0.00000000
Si       2.71295126       2.71386513       0.00034636       0.00000000
Si      -0.00102627      -2.71195920       2.71726450       0.00000000
Si       2.71282094       0.00174303       2.71698741       0.00000000
Si      -2.71374363       2.71627605      -0.00259773       0.00000000
