10
Lattice="16.28999089631971 0.0 0.0 0.0 16.28999089631971 0.0 0.0 0.0 34.63643526849801" Properties=species:S:1:pos:R:3:initial_magmoms:R:1 pbc="T T T"
Si       1.35669368       1.35814617       1.35625965       0.00000000
Si      -1.35743439       1.35723393      -1.35736802       0.00000000
Si       1.35792846      -1.35734959      -1.35767975       0.00000000
Si      -1.35872130      -1.35731212       1.35705629       0.00000000
Si       0.00051630       2.71176372       2.71636395       0.00000000
Si      -2.71494525      -2.71442468      -0.00065809       0.00000000
Si       2.71479586      -2.71474749       0.00045027       0.00000000
Si      -0.00025851      -2.71489522      -2.71508241       0.00000000
Si       2.71541488       0.00167787      -2.71466677       0.00000000
Si      -2.71505928       2.71531494       0.00006927       0.00000000
