10
Lattice="16.28999089631971 0.0 0.0 0.0 16.28999089631971 0.0 0.0 0.0 34.63643526849801" Properties=species:S:1:pos:R:3:initial_magmoms:R:1 pbc="T T T"
Si       1.35697329       1.34081361       1.36843090       0.00000000
Si      -1.35597797      -1.37305152       1.36808454       0.00000000
Si       1.32377427      -1.36334268      -1.43447916       0.00000000
Si      -1.39193815       1.40910129      -1.39322021       0.00000000
Si      -0.59137587      -2.25419391      -2.66400091       0.00000000
Si      -2.46844651      -0.34329546      -2.51527128       0.00000000
Si      -2.72241543       2.70094716       0.02252062       0.00000000
Si       0.00125433       2.70071910       2.72811957       0.00000000
Si       2.70653463       2.72362284      -0.01713119       0.00000000
Si       2.71482624      -0.01373247       2.72708047       0.00000000
