10
Lattice="16.28999089631971 0.0 0.0 0.0 16.28999089631971 0.0 0.0 0.0 34.63643526849801" Properties=species:S:1:pos:R:3:initial_magmoms:R:1 pbc="T T T"
Si       1.33047728      -1.29184587      -1.41574084       0.00000000
Si      -1.34730617      -1.35772263       1.34296618       0.00000000
Si       1.36603672       1.36112724       1.34636056       0.00000000
Si      -1.43115080       1.22996016      -1.40683927       0.00000000
Si      -2.70882437       0.00131949       2.70480231       0.00000000
Si       0.00765427       2.71495992       2.70442130       0.00000000
Si       0.00783527      -2.71614573       2.70518331       0.00000000
Si       2.72241543      -2.70094716      -0.02252062       0.00000000
Si       2.72366976      -0.00022806       2.70559894       0.00000000
Si      -2.72482115       2.70718623      -0.03110007       0.00000000
