10
Lattice="16.290000149 0.0 0.0 0.0 16.290000149 0.0 0.0 0.0 29.1751946751" Properties=species:S:1:pos:R:3:initial_magmoms:R:1 pbc="T T T"
Si       1.61259598      -0.17370027      -1.67839060       0.00000000
Si      -0.43478010       2.28967844      -0.30240089       0.00000000
Si       0.24933474      -0.51324903       2.29831418       0.00000000
Si      -1.89698681      -1.30113118      -0.63272245       0.00000000
H        1.32903595      -2.22676157       1.51074993       0.00000000
H       -2.78102883      -0.44996238      -1.52119465       0.00000000
Si      -1.49651344       1.02923479       2.74995174       0.00000000
Si       0.04986369      -0.95101021      -3.27246489       0.00000000
Si      -2.33038226       2.27337215       1.03633209       0.00000000
Si      -0.86622076      -2.78791950      -2.10504865       0.00000000
