10
Lattice="16.290000149 0.0 0.0 0.0 16.290000149 0.0 0.0 0.0 29.1751946751" Properties=species:S:1:pos:R:3:initial_magmoms:R:1 pbc="T T T"
Si      -2.30663144      -0.08721666       0.36267684       0.00000000
H       -0.90332938       1.57074697      -1.48901441       0.00000000
Si       0.97295284      -0.39976964      -2.15420885       0.00000000
Si       1.02104092       2.15132258       0.39220214       0.00000000
Si       0.05452263      -2.06687522       1.28960196       0.00000000
H       -2.91910287       1.22025133      -0.07457180       0.00000000
Si       2.84076426       1.26312661       1.53910822       0.00000000
Si       2.89023699      -1.46247060      -1.37610641       0.00000000
Si       3.52873983      -0.78655125       0.77147967       0.00000000
Si      -3.15568254      -1.74850346      -1.03382302       0.00000000
