10
Lattice="16.290000149 0.0 0.0 0.0 16.290000149 0.0 0.0 0.0 29.1751946751" Properties=species:S:1:pos:R:3:initial_magmoms:R:1 pbc="T T T"
Si      -1.50162850      -1.36313092       1.15948059       0.00000000
Si       1.39250179      -1.35265645      -1.31390489       0.00000000
Si       1.33957558       1.28858788       1.42961371       0.00000000
Si      -1.34177473       1.34532595      -1.38468391       0.00000000
H       -0.86003056      -2.20736018       2.23858351       0.00000000
Si      -0.00622278      -2.72394866      -2.62941442       0.00000000
Si       2.68868081       2.68180643       0.07827705       0.00000000
Si      -2.93412225      -0.13963788       2.44698193       0.00000000
Si       2.74256814      -2.66173715       0.11588387       0.00000000
Si       2.73359234      -0.00426798      -2.68595595       0.00000000
