10
Lattice="16.290000149 0.0 0.0 0.0 16.290000149 0.0 0.0 0.0 29.1751946751" Properties=species:S:1:pos:R:3:initial_magmoms:R:1 pbc="T T T"
Si      -1.40983435      -1.28870680       1.38022011       0.00000000
Si       1.32351364      -1.39424482      -1.36534076       0.00000000
Si       1.39872457       1.37129221       1.31550953       0.00000000
Si      -1.34855137       1.33193557      -1.40767397       0.00000000
Si       0.00622278       2.72394866       2.62941442       0.00000000
Si      -2.64707615      -2.71770959      -0.04793484       0.00000000
Si       2.59032179      -2.79124266       0.05867132       0.00000000
Si       2.68869710      -0.03481173      -2.74200150       0.00000000
Si      -2.71715573       2.71945262      -0.09703670       0.00000000
Si       2.73981512       2.71968068      -0.05654153       0.00000000
