10
Lattice="16.290000149 0.0 0.0 0.0 16.290000149 0.0 0.0 0.0 29.1751946751" Properties=species:S:1:pos:R:3:initial_magmoms:R:1 pbc="T T T"
Si       1.36529749       1.35531172       1.34719379       0.00000000
Si       1.36943515      -1.36337527      -1.33666154       0.00000000
Si      -1.34890975      -1.34775316       1.37753599       0.00000000
Si      -1.34737849       1.35995437      -1.36732467       0.00000000
Si      -0.01084914       2.71845893       2.67953740       0.00000000
Si       2.71972955       0.01119123      -2.68563502       0.00000000
Si       2.71596656      -0.02103039       2.69036140       0.00000000
Si      -2.69687468      -2.70953201       0.02707458       0.00000000
Si       0.02257794      -2.72018567      -2.69934736       0.00000000
Si      -2.70839171       0.00605988      -2.72047020       0.00000000
