10
Lattice="16.290000149 0.0 0.0 0.0 16.290000149 0.0 0.0 0.0 29.1751946751" Properties=species:S:1:pos:R:3:initial_magmoms:R:1 pbc="T T T"
H       -0.60004216      -0.09146835      -1.40040934       0.00000000
Si      -1.71584201       0.44204544       1.52475402       0.00000000
Si       0.47760651      -2.02992950       1.05865111       0.00000000
H        1.51537726      -0.84667276      -1.70750744       0.00000000
Si       1.89846920       1.49983660       0.31821385       0.00000000
Si       0.79338817      -0.92921419      -3.02981479       0.00000000
Si      -2.56067399       2.28683909       0.40031285       0.00000000
Si      -0.33728445       1.47046573       3.15681441       0.00000000
Si       2.07137126      -1.21710736       2.62034093       0.00000000
Si       0.92716165       2.95404492       1.83030584       0.00000000
