10
Lattice="16.290000149 0.0 0.0 0.0 16.290000149 0.0 0.0 0.0 29.1751946751" Properties=species:S:1:pos:R:3:initial_magmoms:R:1 pbc="T T T"
Si       1.44547687      -1.19355202      -1.35726711       0.00000000
Si      -1.34550677      -1.46183203       1.23381402       0.00000000
Si      -1.35771287       1.24209622      -1.45666700       0.00000000
Si       1.42653160       1.35953083       1.27951988       0.00000000
Si      -2.70619256      -0.00356751       2.52060349       0.00000000
Si       0.08708634      -2.53941554      -2.69845081       0.00000000
Si       0.09689292       2.67397094       2.69921987       0.00000000
Si      -2.52838151       2.83376151      -0.17001174       0.00000000
Si       2.75553498      -0.03613122       2.64862133       0.00000000
Si       0.03999195      -2.80176600       2.60566377       0.00000000
