10
Lattice="16.290000149 0.0 0.0 0.0 16.290000149 0.0 0.0 0.0 29.1751946751" Properties=species:S:1:pos:R:3:initial_magmoms:R:1 pbc="T T T"
Si      -1.34816546      -1.35555607       1.35527532       0.00000000
Si      -1.36862570       1.35710362      -1.34054184       0.00000000
Si       1.33039763      -1.34947990      -1.39092741       0.00000000
Si       1.31479996       1.36546039       1.39466183       0.00000000
Si       0.02974342       2.69180849      -2.67492772       0.00000000
Si       2.68261588      -2.70892928      -0.03250117       0.00000000
Si      -2.69468058       0.00933417       2.70305261       0.00000000
Si       2.68947397       2.71463078       0.04420042       0.00000000
Si      -2.71945767      -2.70301601       0.00049598       0.00000000
Si       2.70247339       0.01506825       2.72563421       0.00000000
