10
Lattice="16.290000149 0.0 0.0 0.0 16.290000149 0.0 0.0 0.0 29.1751946751" Properties=species:S:1:pos:R:3:initial_magmoms:R:1 pbc="T T T"
Si      -0.53597358      -0.25733313       1.38558835       0.00000000
H       -0.67404763      -0.92458783      -1.61674341       0.00000000
H       -1.59518197       0.84323557      -1.16522810       0.00000000
H        1.27189063       1.75646927       0.42219424       0.00000000
Si       0.45364392      -0.98521921      -2.62442546       0.00000000
Si       2.18158940       1.82803124      -0.79371117       0.00000000
Si       2.51695163      -0.29048328      -1.73058502       0.00000000
Si       1.15385329      -1.18581427       2.69683829       0.00000000
Si      -2.33398235      -1.85302010       1.26684530       0.00000000
Si      -1.38518758       1.61746669       2.50113109       0.00000000
