10
Lattice="16.290000149 0.0 0.0 0.0 16.290000149 0.0 0.0 0.0 29.1751946751" Properties=species:S:1:pos:R:3:initial_magmoms:R:1 pbc="T T T"
Si       1.32035338       1.27136935      -1.49196111       0.00000000
Si       1.26519544      -1.63543456       1.15737997       0.00000000
Si      -0.99476515       1.77657113       1.25847202       0.00000000
Si      -1.27979128      -1.69360616      -1.15259524       0.00000000
H        0.23508099      -2.74615194       1.37491022       0.00000000
H       -3.06621786      -1.01273302       0.35062749       0.00000000
H       -2.45560349      -1.16701561      -1.94960321       0.00000000
H       -0.28662255      -1.20537856       3.18304291       0.00000000
H       -1.83723509       0.68111749      -2.92530924       0.00000000
Si      -2.53061894       2.76468996      -0.24676380       0.00000000
