10
Lattice="16.290000149 0.0 0.0 0.0 16.290000149 0.0 0.0 0.0 29.1751946751" Properties=species:S:1:pos:R:3:initial_magmoms:R:1 pbc="T T T"
Si      -1.41962464       1.37028223      -1.25488347       0.00000000
Si      -1.30204342      -1.24063012       1.49808790       0.00000000
Si       1.17517690      -1.45428976      -1.41610560       0.00000000
Si       1.86149090       0.92883952       1.10509802       0.00000000
Si       3.43947063      -0.86802895       1.00645669       0.00000000
Si      -0.04515588       2.69146640      -2.61894053       0.00000000
Si       2.56227041      -2.74833480      -0.05989667       0.00000000
Si       2.56473020      -0.11907990      -2.75005385       0.00000000
Si       0.14157639      -2.59221143       2.78308017       0.00000000
Si      -2.77733100      -0.01246185      -2.60493643       0.00000000
