10
Lattice="16.290000149 0.0 0.0 0.0 16.290000149 0.0 0.0 0.0 29.1751946751" Properties=species:S:1:pos:R:3:initial_magmoms:R:1 pbc="T T T"
Si      -1.30699558       1.42530985       1.30185495       0.00000000
Si       1.26444610       1.48357918      -1.32650858       0.00000000
Si       1.45166707      -1.41693679       1.21733500       0.00000000
Si      -1.37855755      -1.02842029      -1.63206039       0.00000000
Si       0.33728445      -1.47046573      -3.15681441       0.00000000
Si      -0.42538077       2.41206032      -2.63775853       0.00000000
Si       2.23575365       0.02937087      -2.83860057       0.00000000
Si      -2.22338954       0.81637336      -2.75650157       0.00000000
Si       2.40865571      -2.68757309      -0.53647348       0.00000000
Si      -2.60718194      -0.05882319       2.57551617       0.00000000
