10
Lattice="16.290000149 0.0 0.0 0.0 16.290000149 0.0 0.0 0.0 29.1751946751" Properties=species:S:1:pos:R:3:initial_magmoms:R:1 pbc="T T T"
Si      -1.88371046      -1.34340373      -0.39424441       0.00000000
Si       0.52312077       1.25371425      -1.93166046       0.00000000
H       -0.89658532      -0.98917768       2.06502028       0.00000000
Si       1.93430720      -1.49022550       0.31375004       0.00000000
Si      -1.61429014       1.53070615       1.07507675       0.00000000
H       -2.79340923      -1.41496570       0.82166101       0.00000000
Si       0.19518678       2.85733119       1.68154152       0.00000000
Si      -2.77478976       0.07879473      -1.98400076       0.00000000
Si      -0.01254330      -1.84034648       2.95349248       0.00000000
Si       1.54627939      -0.37400211      -3.25233400       0.00000000
