10
Lattice="16.290000149 0.0 0.0 0.0 16.290000149 0.0 0.0 0.0 29.1751946751" Properties=species:S:1:pos:R:3:initial_magmoms:R:1 pbc="T T T"
Si       1.35891996      -1.33944526       1.38080361       0.00000000
Si      -1.50642591      -1.38515500      -1.16740399       0.00000000
Si      -1.40034543       1.34947990       1.36905476       0.00000000
Si       1.48756209       1.19974222      -1.43532038       0.00000000
Si      -2.64607432       0.11650608      -2.55010457       0.00000000
Si      -0.24326672      -2.81246853      -2.49437995       0.00000000
Si       2.66086564       2.66747123       0.01458760       0.00000000
Si       0.13180076       2.60812676      -2.74890435       0.00000000
Si      -0.01520020      -2.70027929       2.74256750       0.00000000
Si       2.67925705       0.00138465       2.77521454       0.00000000
