10
Lattice="16.290000149 0.0 0.0 0.0 16.290000149 0.0 0.0 0.0 29.1751946751" Properties=species:S:1:pos:R:3:initial_magmoms:R:1 pbc="T T T"
Si      -1.36023130       1.35078310       1.35571295       0.00000000
Si      -1.35878149      -1.34276842      -1.36574921       0.00000000
Si       1.32325300      -1.36643779       1.39113163       0.00000000
Si       1.35578413       1.36950031      -1.36329850       0.00000000
Si       2.69695613       0.01589904       2.70255663       0.00000000
Si       2.69472440      -2.70706082       0.02675365       0.00000000
Si       0.00974142       2.71568963       2.69164511       0.00000000
Si      -2.72446994      -2.68963215      -0.01899305       0.00000000
Si      -2.71445159       2.70067025      -0.01537533       0.00000000
Si       0.00333945      -2.70801542      -2.70973373       0.00000000
