10
Lattice="16.290000149 0.0 0.0 0.0 16.290000149 0.0 0.0 0.0 29.1751946751" Properties=species:S:1:pos:R:3:initial_magmoms:R:1 pbc="T T T"
Si      -0.69660928      -0.82793926      -1.04339249       0.00000000
H        0.99776251      -0.66396412       1.43553628       0.00000000
H        1.61613091       1.18416898       0.45983024       0.00000000
Si       1.93103291       1.52707348      -0.96747863       0.00000000
Si      -0.65700829       1.97257241       1.92422079       0.00000000
Si      -0.91386901       2.86220190      -0.31602571       0.00000000
Si      -2.52574823      -1.68091625       0.09543206       0.00000000
Si      -1.98009839       0.47169324      -2.48628092       0.00000000
Si       0.75660535      -2.25805466      -2.17320190       0.00000000
Si      -0.91957051      -0.05975172       3.11141781       0.00000000
