10
Lattice="16.290000149 0.0 0.0 0.0 16.290000149 0.0 0.0 0.0 29.1751946751" Properties=species:S:1:pos:R:3:initial_magmoms:R:1 pbc="T T T"
Si      -1.33517549      -1.37679823      -1.34512235       0.00000000
Si       1.34236280      -1.35803215       1.36429045       0.00000000
Si       1.33084577       1.35755974      -1.38325433       0.00000000
Si      -1.38865572       1.36072000       1.32239487       0.00000000
Si      -2.66528675       0.03178179      -2.65625560       0.00000000
Si      -0.03505608       2.71389773       2.68172554       0.00000000
Si       2.69185899       2.71145423      -0.03010880       0.00000000
Si       2.69032773       0.00374670       2.71475186       0.00000000
Si       2.70142122      -2.71318097       0.00997792       0.00000000
Si      -2.72479412      -0.00744453       2.69467933       0.00000000
