10
Lattice="16.290000149 0.0 0.0 0.0 16.290000149 0.0 0.0 0.0 29.1751946751" Properties=species:S:1:pos:R:3:initial_magmoms:R:1 pbc="T T T"
Si       0.15358212      -0.79578280      -1.27586044       0.00000000
H       -1.40237353       2.03045078      -0.45694190       0.00000000
Si       0.92028727      -0.16265565       2.54180131       0.00000000
H       -1.29489211      -2.67310757       0.43465205       0.00000000
Si      -2.05708493      -0.71790031      -2.08217529       0.00000000
Si       1.01486701      -2.87339313      -0.48378308       0.00000000
Si      -0.79786792       1.46800594       2.64604428       0.00000000
Si       2.78985801       0.73438579       1.26521149       0.00000000
Si       0.87097744      -2.45682524       1.87494389       0.00000000
Si       1.23419557       0.37089072      -2.98120892       0.00000000
