10
Lattice="16.290000149 0.0 0.0 0.0 16.290000149 0.0 0.0 0.0 29.1751946751" Properties=species:S:1:pos:R:3:initial_magmoms:R:1 pbc="T T T"
Si      -0.47760651       2.02992950      -1.05865111       0.00000000
Si       1.59376474       0.81282214       1.56168982       0.00000000
Si       1.29531565      -1.50170995      -1.32055684       0.00000000
Si      -1.86957074      -0.89704144       1.27658982       0.00000000
H       -2.78985801      -0.73438579      -1.26521149       0.00000000
H        1.03777075       1.18325674      -2.76615856       0.00000000
H       -1.07764867       1.93846115      -2.45906046       0.00000000
Si      -2.19344852       2.47197494       0.46610291       0.00000000
Si       2.22361760      -2.54453060       0.51351260       0.00000000
Si       3.29488059      -0.78491737       1.57759030       0.00000000
