10
Lattice="16.290000149 0.0 0.0 0.0 16.290000149 0.0 0.0 0.0 29.1751946751" Properties=species:S:1:pos:R:3:initial_magmoms:R:1 pbc="T T T"
Si       1.36190917       1.30880377      -1.30643604       0.00000000
Si      -1.42039027      -1.40366044      -1.17479756       0.00000000
Si       1.28348911      -1.29963250       1.44288843       0.00000000
Si      -1.07312005       1.41641551       1.50462314       0.00000000
H        1.98009839      -0.47169324       2.48628092       0.00000000
Si       1.06622938       2.39050865       2.17025521       0.00000000
Si      -0.54564984      -2.15260949       2.58171298       0.00000000
Si      -2.12362958      -0.35574102       2.68035431       0.00000000
Si       2.54969453       2.47568906       0.29466947       0.00000000
Si       0.01497051      -2.72505638      -2.45768922       0.00000000
