10
Lattice="16.290000149 0.0 0.0 0.0 16.290000149 0.0 0.0 0.0 29.1751946751" Properties=species:S:1:pos:R:3:initial_magmoms:R:1 pbc="T T T"
Si       1.36839259      -1.34864911       1.34112535       0.00000000
Si       1.38020284       1.34420194      -1.33383155       0.00000000
Si      -1.35048988       1.37738467       1.34771894       0.00000000
Si      -1.37997478      -1.34426710      -1.35635480       0.00000000
Si      -0.05390361       2.69044828      -2.59557119       0.00000000
Si      -0.00807984      -2.69309540       2.68003338       0.00000000
Si      -2.74005948       0.02461419       2.66944279       0.00000000
Si       2.72587088       0.01526373       2.69713005       0.00000000
Si       2.72464913      -2.70112637      -0.02392366       0.00000000
Si      -0.04359204      -2.78554116      -2.64490645       0.00000000
