10
Lattice="16.290000149 0.0 0.0 0.0 16.290000149 0.0 0.0 0.0 29.1751946751" Properties=species:S:1:pos:R:3:initial_magmoms:R:1 pbc="T T T"
Si      -1.36928691       1.23504265      -1.44700213       0.00000000
Si       1.19482264      -1.40095630      -1.47693588       0.00000000
Si      -1.37044187      -1.42413697       1.30065935       0.00000000
Si       1.43338969       1.41175657       1.31731839       0.00000000
Si      -0.07091037       2.74418085       2.56873002       0.00000000
Si       2.55254528      -2.75481822      -0.17321313       0.00000000
Si       0.05825304      -2.63498897       2.68773563       0.00000000
Si      -2.77327479       2.54391158      -0.12621189       0.00000000
Si       2.73543312       2.65238669      -0.18076951       0.00000000
Si      -0.04189788       2.63992484      -2.78570594       0.00000000
