10
Lattice="16.290000149 0.0 0.0 0.0 16.290000149 0.0 0.0 0.0 29.1751946751" Properties=species:S:1:pos:R:3:initial_magmoms:R:1 pbc="T T T"
Si       1.36420606       1.36186030      -1.32872589       0.00000000
Si      -1.35630541       1.36376623       1.35043224       0.00000000
Si       1.38272779      -1.33991767       1.34879843       0.00000000
Si      -1.33408585      -1.35138583      -1.39358235       0.00000000
Si       2.70058880      -0.07941375      -2.61727754       0.00000000
Si      -2.68786631      -2.69570180      -0.01718419       0.00000000
Si      -0.02032992       2.71893134      -2.66777980       0.00000000
Si       0.02480967      -2.70034445       2.69733427       0.00000000
Si      -2.71761185       0.02019960       2.70045602       0.00000000
Si       0.00412137       2.73074160       2.69707170       0.00000000
