10
Lattice="16.290000149 0.0 0.0 0.0 16.290000149 0.0 0.0 0.0 29.1751946751" Properties=species:S:1:pos:R:3:initial_magmoms:R:1 pbc="T T T"
Si      -1.35654976      -1.34892604      -1.35434171       0.00000000
Si      -1.34452774       1.33022512       1.38599680       0.00000000
Si       1.34079733       1.35405739      -1.38439216       0.00000000
Si       1.34548885      -1.38021913       1.35486687       0.00000000
Si       0.06885783      -2.70915734      -2.62378361       0.00000000
Si      -2.70730028       2.67121793       0.02325263       0.00000000
Si       2.70532757       2.68376123      -0.00542659       0.00000000
Si      -2.69869916      -0.06305859       2.70894600       0.00000000
Si       2.69553239      -0.03429045      -2.71422671       0.00000000
Si       2.69908850      -0.02704140       2.71419754       0.00000000
