10
Lattice="16.290000149 0.0 0.0 0.0 16.290000149 0.0 0.0 0.0 29.1751946751" Properties=species:S:1:pos:R:3:initial_magmoms:R:1 pbc="T T T"
Si       1.35337321       1.35294967       1.35886387       0.00000000
Si      -1.35791812      -1.36042678       1.34853585       0.00000000
Si       1.36963063      -1.37810143      -1.32195725       0.00000000
Si      -1.38272779       1.33991767      -1.34879843       0.00000000
Si       2.71316468      -0.04546539       2.66141961       0.00000000
Si      -0.01852173       2.70177797      -2.67752432       0.00000000
Si      -0.00348606      -2.70454727      -2.68429296       0.00000000
Si      -0.01894527       2.71948520       2.69214109       0.00000000
Si      -2.73406475       0.00272043       2.68087946       0.00000000
Si       2.72984565       2.69739596       0.01995583       0.00000000
