10
Lattice="16.290000149 0.0 0.0 0.0 16.290000149 0.0 0.0 0.0 29.1751946751" Properties=species:S:1:pos:R:3:initial_magmoms:R:1 pbc="T T T"
Si       1.18172548       0.53659260       1.05182412       0.00000000
Si      -1.29738448      -0.55081378      -0.91951461       0.00000000
Si      -0.06825510      -2.40228632      -1.58412555       0.00000000
Si      -0.35596908       1.80845066       2.24937833       0.00000000
Si       2.85194897       1.31979952      -0.39453616       0.00000000
Si      -3.08438121      -1.13893165       0.52042712       0.00000000
Si       2.32137389      -0.96506848       2.43452470       0.00000000
Si      -2.32321466       0.78323950      -2.53704575       0.00000000
Si      -1.82785205       3.01778769       0.79487818       0.00000000
H       -0.33782202       0.69370966      -3.59788501       0.00000000
