10
Lattice="16.290000149 0.0 0.0 0.0 16.290000149 0.0 0.0 0.0 29.1751946751" Properties=species:S:1:pos:R:3:initial_magmoms:R:1 pbc="T T T"
H       -0.64720171       0.42826410      -0.04125373       0.00000000
Si       1.98540893       0.62105626       1.08919754       0.00000000
H       -1.79527205      -1.20252781       1.08082426       0.00000000
Si       0.75209302      -0.55500031      -2.49675481       0.00000000
Si       0.20507481       2.17289054       1.71027909       0.00000000
Si      -2.51726114      -1.28506924      -0.24148309       0.00000000
Si      -0.91049698      -2.07516683      -1.76550773       0.00000000
Si       2.61276941       0.27880335      -1.23577372       0.00000000
Si       1.22300434      -1.24853077       2.36710024       0.00000000
Si      -0.73422289       1.24631533      -2.62147877       0.00000000
