10
Lattice="16.290000149 0.0 0.0 0.0 16.290000149 0.0 0.0 0.0 29.1751946751" Properties=species:S:1:pos:R:3:initial_magmoms:R:1 pbc="T T T"
Si      -1.40398787       1.30886893       1.32079024       0.00000000
Si       1.36928691      -1.23504265       1.44700213       0.00000000
Si       1.32738903       1.40488219      -1.33870381       0.00000000
Si      -1.39729268      -1.37184607      -1.31145418       0.00000000
Si       2.56410955      -2.63599895      -0.02993375       0.00000000
Si      -2.71787412       2.61967637      -0.08206982       0.00000000
Si      -0.11348754       2.72802116       2.62687618       0.00000000
Si       2.62314451       0.04777857      -2.75956496       0.00000000
Si      -0.00115496      -2.65917962       2.74766148       0.00000000
Si      -0.07530704      -2.70544322      -2.71796114       0.00000000
