10
Lattice="16.290000149 0.0 0.0 0.0 16.290000149 0.0 0.0 0.0 29.1751946751" Properties=species:S:1:pos:R:3:initial_magmoms:R:1 pbc="T T T"
H        1.22298805      -1.95911687       0.21706345       0.00000000
H       -1.98540893      -0.62105626      -1.08919754       0.00000000
Si       1.87831847       0.70737697       1.27200931       0.00000000
Si      -0.76240459      -1.86958703       1.27790270       0.00000000
Si       0.62736049      -0.34225290      -2.32497126       0.00000000
Si      -1.78033412       1.55183428       0.62108154       0.00000000
H       -2.63261063      -0.19279215      -1.13045127       0.00000000
H        2.33282576       1.99031222       0.61060765       0.00000000
H        2.85452931       0.44953884      -1.19752504       0.00000000
H       -0.44676954       2.18295776      -2.22180778       0.00000000
