10
Lattice="16.290000149 0.0 0.0 0.0 16.290000149 0.0 0.0 0.0 29.1751946751" Properties=species:S:1:pos:R:3:initial_magmoms:R:1 pbc="T T T"
Si       0.08283465      -0.69240646      -2.22967924       0.00000000
Si      -0.98870527      -1.78724922       1.15247271       0.00000000
Si       1.83899441       0.88135417       1.18619923       0.00000000
Si      -1.63299106       1.73539001      -0.08409196       0.00000000
H        2.53433306      -0.94672594      -0.73582175       0.00000000
Si      -2.30409020      -0.46402065       2.55322340       0.00000000
Si       0.55159570       2.33033339       2.51415490       0.00000000
Si      -2.12082770      -0.31095981      -3.03436029       0.00000000
Si      -2.07151787       1.98320978      -2.36750286       0.00000000
Si       2.02167047       0.33572061      -3.13058008       0.00000000
