10
Lattice="16.290000149 0.0 0.0 0.0 16.290000149 0.0 0.0 0.0 29.1751946751" Properties=species:S:1:pos:R:3:initial_magmoms:R:1 pbc="T T T"
Si       1.05490783      -1.46795707      -1.47684835       0.00000000
Si      -1.31512429      -1.35454609       1.38646360       0.00000000
Si      -1.44361981       1.35158131      -1.28499227       0.00000000
Si       1.81400555       0.75562795       1.38275835       0.00000000
Si       2.15489009      -1.19366605       2.75483858       0.00000000
Si       0.28344600      -2.65787642       2.59688408       0.00000000
Si       2.42069402      -0.15612336      -2.84297685       0.00000000
Si      -2.70053993       0.12290805       2.60021005       0.00000000
Si       2.27970407      -3.00092754      -0.23906155       0.00000000
Si      -0.14157639       2.59221143      -2.78308017       0.00000000
