10
Lattice="16.290000149 0.0 0.0 0.0 16.290000149 0.0 0.0 0.0 29.1751946751" Properties=species:S:1:pos:R:3:initial_magmoms:R:1 pbc="T T T"
Si       1.33035544      -1.41989343      -1.28583835       0.00000000
Si      -1.34889346      -1.37328611       1.33686577       0.00000000
Si       1.38522016       1.35120664       1.32429126       0.00000000
Si      -1.30018636       1.34921926      -1.41841044       0.00000000
Si       2.66390372      -0.08006535      -2.61476847       0.00000000
Si       0.01477503       2.69550632       2.66480393       0.00000000
Si      -2.67783167       2.69768918      -0.06710295       0.00000000
Si      -2.70870122      -0.01682757       2.67769937       0.00000000
Si      -2.72849357      -0.05497875      -2.66094405       0.00000000
Si       0.03376917      -2.73295704       2.65745178       0.00000000
