10
Lattice="16.290000149 0.0 0.0 0.0 16.290000149 0.0 0.0 0.0 29.1751946751" Properties=species:S:1:pos:R:3:initial_magmoms:R:1 pbc="T T T"
Si       1.37370313       1.38233683       1.31142500       0.00000000
Si       1.37147140      -1.34062303      -1.36437798       0.00000000
Si      -1.32325300       1.36643779      -1.39113163       0.00000000
Si      -1.36518346      -1.35943309       1.37666074       0.00000000
Si      -2.67283064      -2.66894657      -0.07661406       0.00000000
Si       2.67333563      -0.00092853       2.68747306       0.00000000
Si      -2.68348430       2.71722089      -0.03541869       0.00000000
Si       2.70345584      -2.70917363       0.00644772       0.00000000
Si      -2.68869710       0.03481173       2.74200150       0.00000000
Si      -2.68203449       0.02366937      -2.75688085       0.00000000
