10
Lattice="16.290000149 0.0 0.0 0.0 16.290000149 0.0 0.0 0.0 29.1751946751" Properties=species:S:1:pos:R:3:initial_magmoms:R:1 pbc="T T T"
Si       1.35980776      -1.35645854      -1.34083360       0.00000000
Si       1.37310040       1.34752510       1.34290504       0.00000000
Si      -1.34537482      -1.35466501       1.36551581       0.00000000
Si      -1.32952465       1.37002159      -1.37269291       0.00000000
Si       0.00197109       2.70373277       2.67574463       0.00000000
Si       2.70870122       0.01682757      -2.67769937       0.00000000
Si       0.04427622      -2.70278795       2.69742180       0.00000000
Si       0.00465894      -2.72873793      -2.67889555       0.00000000
Si      -2.68858307       2.72517041      -0.01838037       0.00000000
Si      -2.70068654      -2.71798652       0.01455842       0.00000000
