10
Lattice="16.290000149 0.0 0.0 0.0 16.290000149 0.0 0.0 0.0 29.1751946751" Properties=species:S:1:pos:R:3:initial_magmoms:R:1 pbc="T T T"
Si       0.45941058      -0.41800140       2.21352202       0.00000000
Si       1.82011430       1.30170133      -0.64124160       0.00000000
Si      -1.65061685       1.65068201      -0.09467351       0.00000000
Si      -0.67131091      -1.87642883      -1.29774183       0.00000000
H        1.81623728       0.15820848       2.48873163       0.00000000
Si       0.78788215       2.12793014      -2.59428749       0.00000000
Si      -2.08317499      -0.65754586      -2.68659780       0.00000000
Si      -3.41602932       0.61908517      -1.24303834       0.00000000
Si       3.63755703      -0.15956055      -0.80701506       0.00000000
Si      -0.74033164       3.39032370      -1.37668991       0.00000000
