10
Lattice="16.290000149 0.0 0.0 0.0 16.290000149 0.0 0.0 0.0 29.1751946751" Properties=species:S:1:pos:R:3:initial_magmoms:R:1 pbc="T T T"
Si      -1.37112931       1.35620767       1.33283959       0.00000000
Si      -1.37310040      -1.34752510      -1.34290504       0.00000000
Si       1.35037585       1.36480879      -1.35580047       0.00000000
Si       1.36884871      -1.34524450       1.36274417       0.00000000
Si      -0.00338832       2.71399547       2.66162383       0.00000000
Si      -0.01329264      -2.70398364      -2.68373863       0.00000000
Si       2.71871957      -2.69026746      -0.01455842       0.00000000
Si       2.72082098       0.02050911      -2.69631314       0.00000000
Si      -2.70262505       0.02249649      -2.71559795       0.00000000
Si      -2.71847522      -2.70219011       0.02261078       0.00000000
