10
Lattice="16.290000149 0.0 0.0 0.0 16.290000149 0.0 0.0 0.0 29.1751946751" Properties=species:S:1:pos:R:3:initial_magmoms:R:1 pbc="T T T"
Si       0.06993297       1.07360875       1.06092678       0.00000000
H        1.15216890       1.80247223      -1.93451963       0.00000000
Si      -2.47101383      -1.39043296      -1.03052623       0.00000000
H       -1.21259503      -2.17390541       1.73108100       0.00000000
Si      -0.46543788      -2.25605425      -1.97673614       0.00000000
Si      -1.55115010       0.39488589       2.62004918       0.00000000
Si       2.26834831       1.25859799       1.71226300       0.00000000
Si      -0.37802574       3.20466657       0.16726139       0.00000000
Si      -3.08918676      -0.32193927       1.01232090       0.00000000
Si       2.29035447       0.83826712      -2.22487117       0.00000000
