10
Lattice="16.290000149 0.0 0.0 0.0 16.290000149 0.0 0.0 0.0 29.1751946751" Properties=species:S:1:pos:R:3:initial_magmoms:R:1 pbc="T T T"
Si      -1.23157288       1.20087438       1.59623909       0.00000000
Si      -1.94207753      -0.85199959      -1.06179007       0.00000000
Si       1.30054474      -1.52985907       1.31815864       0.00000000
Si       1.47835579       1.30746995      -1.37245659       0.00000000
H       -0.86237632      -2.56551212      -1.84935432       0.00000000
Si      -2.64849338       2.54423575       0.34212292       0.00000000
Si       2.64902444      -0.28419534      -2.65911185       0.00000000
Si       2.82480820       2.52095083       0.10950326       0.00000000
Si      -3.68792571       0.69048424      -0.61015252       0.00000000
Si       2.69077571      -0.24267213       2.75239078       0.00000000
