10
Lattice="16.290000149 0.0 0.0 0.0 16.290000149 0.0 0.0 0.0 29.1751946751" Properties=species:S:1:pos:R:3:initial_magmoms:R:1 pbc="T T T"
H        0.64720171      -0.42826410       0.04125373       0.00000000
H       -1.14807034      -1.63079191       1.12207799       0.00000000
Si      -1.87005944      -1.71333335      -0.20022936       0.00000000
Si       0.85227652       1.74462644       1.75153281       0.00000000
Si      -0.08702118       0.81805123      -2.58022504       0.00000000
Si      -2.21094398       0.23596065      -1.57230959       0.00000000
Si       2.63261063       0.19279215       1.13045127       0.00000000
Si       1.39929472      -0.98326441      -2.45550108       0.00000000
Si      -0.26329527      -2.50343093      -1.72425401       0.00000000
Si      -0.37318761       3.06525675       0.23246795       0.00000000
