10
Lattice="16.290000149 0.0 0.0 0.0 16.290000149 0.0 0.0 0.0 29.1751946751" Properties=species:S:1:pos:R:3:initial_magmoms:R:1 pbc="T T T"
Si      -1.46570091       1.21067281       1.33698247       0.00000000
Si       1.17966480       1.52668252      -1.31708499       0.00000000
Si      -0.22538681      -1.85455136      -1.43323144       0.00000000
Si       1.43802420      -1.18644958       1.44408461       0.00000000
H       -2.94137944      -1.26434836      -1.42386620       0.00000000
Si       2.08335255      -2.03221010      -2.03412375       0.00000000
Si      -2.61756682      -0.42893199       2.51776095       0.00000000
Si       2.54103640       0.17531298      -2.64230986       0.00000000
Si       3.15906271      -1.94473280       0.06497316       0.00000000
Si      -0.00677501       2.59506218       2.68586842       0.00000000
