10
Lattice="16.290000149 0.0 0.0 0.0 16.290000149 0.0 0.0 0.0 29.1751946751" Properties=species:S:1:pos:R:3:initial_magmoms:R:1 pbc="T T T"
Si      -1.35682669      -0.57620989      -0.27520961       0.00000000
H        0.92113435      -1.76782340      -0.45151531       0.00000000
H        1.59518197      -0.84323557       1.16522810       0.00000000
Si       1.05920839      -1.10056870       2.55081645       0.00000000
Si      -2.71819829       0.77515966       1.05001526       0.00000000
Si      -1.81623728      -0.15820848      -2.48873163       0.00000000
Si       2.04882590      -1.82845478      -1.45919736       0.00000000
Si      -1.17874441       2.09007218       2.23773743       0.00000000
Si       0.00387702       1.14349285      -3.12997324       0.00000000
Si      -1.81451054      -2.78373297       0.33297650       0.00000000
