10
Lattice="16.290000149 0.0 0.0 0.0 16.290000149 0.0 0.0 0.0 29.1751946751" Properties=species:S:1:pos:R:3:initial_magmoms:R:1 pbc="T T T"
Si      -1.53945388      -1.31491252      -1.18772218       0.00000000
Si      -1.40929678       1.18063405       1.46923363       0.00000000
Si       1.38873880      -1.31584105       1.42862176       0.00000000
Si       0.78219694       1.49733609      -1.71004569       0.00000000
H        1.17874441      -2.09007218      -2.23773743       0.00000000
Si      -1.28739871       2.21823864      -2.55490097       0.00000000
Si      -0.17808228      -2.66628206      -2.51294704       0.00000000
Si      -2.57022156       0.22895595      -2.67020134       0.00000000
Si       0.03710862       2.62218666       2.74430634       0.00000000
H       -0.60652558       3.77941035       0.02211480       0.00000000
