10
Lattice="16.290000149 0.0 0.0 0.0 16.290000149 0.0 0.0 0.0 29.1751946751" Properties=species:S:1:pos:R:3:initial_magmoms:R:1 pbc="T T T"
Si      -1.22546413       1.32063031      -1.51906486       0.00000000
Si       1.34110684       1.45541377       1.29321968       0.00000000
Si      -1.61725492      -1.02890899       1.39626647       0.00000000
Si       1.78033412      -1.55183428      -0.62108154       0.00000000
H       -0.85227652      -1.74462644      -1.75153281       0.00000000
H       -0.20507481      -2.17289054      -1.71027909       0.00000000
H        1.33356457       0.63112348      -2.84288932       0.00000000
Si      -0.05178591      -2.31000347       2.52222475       0.00000000
Si       1.01792953      -3.42142131       0.65682116       0.00000000
Si       0.02684592       1.08105328      -3.46723849       0.00000000
