10
Lattice="16.290000149 0.0 0.0 0.0 16.290000149 0.0 0.0 0.0 29.1751946751" Properties=species:S:1:pos:R:3:initial_magmoms:R:1 pbc="T T T"
Si      -1.36844961      -1.37283162      -1.33234362       0.00000000
Si       1.40811576      -1.33899729       1.32963032       0.00000000
Si       1.34865726       1.35416328      -1.37639816       0.00000000
Si      -1.39856982       1.33541349       1.34868172       0.00000000
Si      -0.01755085       2.70242143       2.67950823       0.00000000
Si       0.07491119      -2.69196325       2.70395704       0.00000000
Si      -2.70043405      -0.00428101      -2.70316931       0.00000000
Si      -2.69820232       2.71867885      -0.02736633       0.00000000
Si       0.00319121      -2.71126690      -2.71224280       0.00000000
Si       2.70533734       2.72232781      -0.04029094       0.00000000
