10
Lattice="16.290000149 0.0 0.0 0.0 16.290000149 0.0 0.0 0.0 29.1751946751" Properties=species:S:1:pos:R:3:initial_magmoms:R:1 pbc="T T T"
Si       1.31512429       1.35454609      -1.38646360       0.00000000
Si      -1.38541564       1.47745414       1.21374645       0.00000000
Si       1.59857029      -1.30333033       1.21042048       0.00000000
Si      -1.50363217      -1.34061814      -1.30103863       0.00000000
Si      -1.69271021      -2.39212136       2.10945410       0.00000000
Si      -2.23505318      -0.00964368       2.84525251       0.00000000
Si       2.37003212      -0.11341098      -2.86331196       0.00000000
Si       3.47001438       0.16088004       1.36837498       0.00000000
Si       3.12912984       2.11017404      -0.00370525       0.00000000
H        2.07658406       0.99862588       2.99778043       0.00000000
