10
Lattice="16.290000149 0.0 0.0 0.0 16.290000149 0.0 0.0 0.0 29.1751946751" Properties=species:S:1:pos:R:3:initial_magmoms:R:1 pbc="T T T"
Si      -1.34587167       1.36092689      -1.35501274       0.00000000
Si       1.35531172       1.36332152       1.35095739       0.00000000
Si      -1.37467402      -1.34917039       1.35046141       0.00000000
Si       1.31429350      -1.36956547      -1.39279462       0.00000000
Si      -2.65973055      -0.02282229      -2.71912814       0.00000000
Si       0.01299942      -2.69956253       2.68143379       0.00000000
Si       2.70534548      -0.01075140      -2.69345397       0.00000000
Si      -0.02920797       2.71625978       2.68630605       0.00000000
Si      -2.68947397      -2.71463078      -0.04420042       0.00000000
Si       2.69316056      -2.71788878      -0.05972162       0.00000000
