10
Lattice="16.290000149 0.0 0.0 0.0 16.290000149 0.0 0.0 0.0 29.1751946751" Properties=species:S:1:pos:R:3:initial_magmoms:R:1 pbc="T T T"
Si      -1.34546442      -1.32934546       1.38110704       0.00000000
Si       1.36295173       1.36738261       1.36325182       0.00000000
Si      -1.38548243       1.33946155      -1.37269291       0.00000000
Si       1.38504097      -1.37130850      -1.34947821       0.00000000
Si       2.68374494       0.11352501      -2.62274468       0.00000000
Si      -2.67669137      -2.68941386       0.00217355       0.00000000
Si      -2.60589797      -0.15045444      -2.77116502       0.00000000
Si      -0.03979647       2.80186374      -2.60567252       0.00000000
Si      -2.70001865       0.05919786       2.71105828       0.00000000
Si       0.02417436      -2.67810860       2.74487234       0.00000000
