10
Lattice="16.290000149 0.0 0.0 0.0 16.290000149 0.0 0.0 0.0 29.1751946751" Properties=species:S:1:pos:R:3:initial_magmoms:R:1 pbc="T T T"
Si       1.61083666      -0.17383059      -1.67999523       0.00000000
Si      -0.43564347       2.28989672      -0.30409305       0.00000000
Si       0.24752655      -0.51639300       2.29728400       0.00000000
Si      -1.90022852      -1.29891574      -0.62910472       0.00000000
H        1.32828661      -2.23063859       1.50835756       0.00000000
H       -2.78259267      -0.44916417      -1.52072785       0.00000000
Si      -1.49884291       1.02605824       2.74717718       0.00000000
Si       0.04383639      -0.95333968      -3.26884716       0.00000000
Si      -2.33235335       2.27085534       1.03385220       0.00000000
Si      -0.87601105      -2.78853852      -2.10233535       0.00000000
