10
Lattice="16.290000149 0.0 0.0 0.0 16.290000149 0.0 0.0 0.0 29.1751946751" Properties=species:S:1:pos:R:3:initial_magmoms:R:1 pbc="T T T"
Si       0.44044902      -0.24742881       2.28276643       0.00000000
Si      -1.71608636       1.63211141       0.10616853       0.00000000
Si      -0.04792518      -2.29395782      -0.66714918       0.00000000
Si       1.86787658       0.89494003      -1.27551034       0.00000000
H       -0.89891479       0.15912072      -2.53894214       0.00000000
Si       2.15666570      -2.67502979       0.13686084       0.00000000
Si      -0.32371488       3.37181826      -0.80727764       0.00000000
Si       2.07371702      -1.98259076       2.36638837       0.00000000
Si       3.46170648       1.70600285       0.28874690       0.00000000
Si      -3.77041827       0.62099110      -0.61778475       0.00000000
