10
Lattice="16.290000149 0.0 0.0 0.0 16.290000149 0.0 0.0 0.0 29.1751946751" Properties=species:S:1:pos:R:3:initial_magmoms:R:1 pbc="T T T"
Si      -1.52161633      -1.37404522       1.13126817       0.00000000
Si       1.37078722      -1.35290080      -1.34305091       0.00000000
Si      -1.34892604       1.33328764      -1.40373532       0.00000000
Si       1.34174215       1.29424051       1.45105748       0.00000000
H       -0.91479754      -2.25235316       2.20328153       0.00000000
Si       2.66365937       2.66416436       0.05884637       0.00000000
Si      -0.02762784      -2.72482832      -2.65996085       0.00000000
Si      -2.96021883      -0.14674032       2.41095056       0.00000000
Si       2.72280836      -2.68330511       0.06170554       0.00000000
Si       2.71282259      -0.00759114      -2.71723176       0.00000000
