10
Lattice="16.290000149 0.0 0.0 0.0 16.290000149 0.0 0.0 0.0 29.1751946751" Properties=species:S:1:pos:R:3:initial_magmoms:R:1 pbc="T T T"
Si       1.38012139       1.31781214      -1.36361942       0.00000000
Si      -1.37334475      -1.32667390      -1.36370695       0.00000000
Si       1.35653347      -1.37016820       1.33855793       0.00000000
Si      -1.36919080       1.37904625       1.32280333       0.00000000
Si      -0.05318685       2.63751392      -2.64639438       0.00000000
Si       0.04544910      -2.65727369      -2.66617517       0.00000000
Si       2.72622926      -0.00887805       2.66699207       0.00000000
Si      -2.72992709       0.01656693       2.66649609       0.00000000
Si      -0.01407456       2.73134432       2.68417626       0.00000000
Si       0.00131949      -2.72681570       2.69546706       0.00000000
