10
Lattice="16.290000149 0.0 0.0 0.0 16.290000149 0.0 0.0 0.0 29.1751946751" Properties=species:S:1:pos:R:3:initial_magmoms:R:1 pbc="T T T"
Si      -1.34118829       1.35467641       1.34341181       0.00000000
Si       1.39890376      -1.42622209       1.22252818       0.00000000
Si       1.39494529       1.23489604      -1.42398290       0.00000000
Si      -1.51053913      -1.28303299      -1.27985744       0.00000000
H        0.51258114       2.08464761      -2.31560603       0.00000000
Si       2.70808220       0.01959687       2.59248738       0.00000000
Si      -2.55541232       2.76887649      -0.10765647       0.00000000
Si      -2.66178602      -0.04926096       2.68574880       0.00000000
Si       2.41916276      -0.25472673      -2.89721353       0.00000000
Si       0.07348419      -2.80917795       2.59861417       0.00000000
