10
Lattice="16.290000149 0.0 0.0 0.0 16.290000149 0.0 0.0 0.0 29.1751946751" Properties=species:S:1:pos:R:3:initial_magmoms:R:1 pbc="T T T"
Si      -2.19568025       0.72558919       0.46055962       0.00000000
Si      -0.28851219      -2.01978083       1.20397276       0.00000000
Si       1.58495185       1.30412854       1.20096771       0.00000000
Si      -0.28246860       0.87882922      -2.24260969       0.00000000
H        1.70191406      -2.22736430      -0.50767756       0.00000000
H        2.21594501      -0.92395252      -1.65703436       0.00000000
H        0.82776007      -1.83140327      -2.28713104       0.00000000
H        1.00782973      -2.47823030       1.85513393       0.00000000
Si      -2.15169725       2.87041531      -0.51733455       0.00000000
Si      -0.40335669       3.18500128      -2.00938318       0.00000000
