10
Lattice="16.290000149 0.0 0.0 0.0 16.290000149 0.0 0.0 0.0 29.1751946751" Properties=species:S:1:pos:R:3:initial_magmoms:R:1 pbc="T T T"
Si      -1.32101313       0.27246654       1.91027505       0.00000000
Si       2.21025980      -0.08368173       0.80581888       0.00000000
Si      -1.27662939      -0.18650421      -2.04477269       0.00000000
Si      -0.51163632       2.37431639       0.75006508       0.00000000
Si      -0.52761681      -1.99083350       1.69350335       0.00000000
H        2.07203915       0.71265493       2.08424673       0.00000000
H        0.22151142      -1.61756443      -2.65482601       0.00000000
H       -2.47053816       0.77566465      -1.80428156       0.00000000
H        0.67719160       2.74299168       1.64513088       0.00000000
H        0.75329848      -1.95251942       2.51551446       0.00000000
