10
Lattice="16.290000149 0.0 0.0 0.0 16.290000149 0.0 0.0 0.0 29.1751946751" Properties=species:S:1:pos:R:3:initial_magmoms:R:1 pbc="T T T"
Si      -1.34693866      -1.35692443      -1.36262747       0.00000000
Si      -1.37002159       1.36319608       1.33663237       0.00000000
Si       1.35166276       1.37552761      -1.34678534       0.00000000
Si       1.34620561      -1.35920503       1.36881261       0.00000000
Si      -0.00491958       2.71876844       2.68341771       0.00000000
Si      -2.70720254      -2.70112637       0.01015297       0.00000000
Si      -2.70003494       0.01018125      -2.71880722       0.00000000
Si       0.03129309      -2.70578531      -2.71314723       0.00000000
Si       2.77045662       0.04492782      -2.64925355       0.00000000
Si       2.71717202      -2.70488936       0.03031303       0.00000000
