10
Lattice="16.290000149 0.0 0.0 0.0 16.290000149 0.0 0.0 0.0 29.1751946751" Properties=species:S:1:pos:R:3:initial_magmoms:R:1 pbc="T T T"
Si       1.36260964      -1.34032492       1.36364860       0.00000000
Si       1.35567010       1.37029852      -1.34663946       0.00000000
Si      -1.35508366       1.35265645       1.36662447       0.00000000
Si      -1.33509583      -1.40454010      -1.33873298       0.00000000
Si       2.70681158      -2.67092471      -0.02316510       0.00000000
Si      -2.76840408      -0.08483832      -2.62150794       0.00000000
Si       0.01101204      -2.73123029       2.69187851       0.00000000
Si      -2.72422559       2.70065396       0.02456551       0.00000000
Si       0.00948078       2.71521722      -2.71212610       0.00000000
Si       2.71296920       2.71862183       0.02123954       0.00000000
