10
Lattice="16.290000149 0.0 0.0 0.0 16.290000149 0.0 0.0 0.0 29.1751946751" Properties=species:S:1:pos:R:3:initial_magmoms:R:1 pbc="T T T"
Si       0.91271242       0.06737544      -1.21325047       0.00000000
H       -1.25856541      -1.76534732      -0.42767918       0.00000000
H        1.91166410       0.41826204       1.24172546       0.00000000
Si      -1.79492996      -2.02233836       0.95834679       0.00000000
Si       1.19479006       2.93261705       0.24921451       0.00000000
Si       0.02966409       1.48361176      -2.81193444       0.00000000
Si       1.23406525      -2.05721525      -2.13918362       0.00000000
Si       2.80605027       1.40066308      -0.82985924       0.00000000
Si      -2.64433943      -0.14866254       2.07476479       0.00000000
H       -2.85371481      -0.91665460      -1.59719603       0.00000000
