10
Lattice="16.290000149 0.0 0.0 0.0 16.290000149 0.0 0.0 0.0 29.1751946751" Properties=species:S:1:pos:R:3:initial_magmoms:R:1 pbc="T T T"
Si       1.05054211      -1.11001853      -0.01601718       0.00000000
Si      -1.86921236       1.84563747      -0.72573297       0.00000000
Si      -0.33402645       2.57935537       0.87213409       0.00000000
Si      -0.25852230       1.11737672       2.81248877       0.00000000
Si      -1.83027926      -0.57585965       2.37804094       0.00000000
H        1.22434012       2.21167377      -1.75497549       0.00000000
Si      -1.24248718       0.76166828      -2.76586681       0.00000000
Si       2.91961600      -0.21080889       1.10369761       0.00000000
Si       1.33108849      -1.84544850      -2.22207035       0.00000000
Si       0.21620088      -3.03958697       1.00213876       0.00000000
