10
Lattice="16.290000149 0.0 0.0 0.0 16.290000149 0.0 0.0 0.0 29.1751946751" Properties=species:S:1:pos:R:3:initial_magmoms:R:1 pbc="T T T"
Si       1.44616105      -1.19298187      -1.35671570       0.00000000
Si      -1.34568596      -1.46240218       1.23297961       0.00000000
Si      -1.35799957       1.24159123      -1.45713672       0.00000000
Si       1.42715062       1.35907471       1.27936234       0.00000000
Si      -2.70503597      -0.00392589       2.52074061       0.00000000
Si       0.08750988      -2.53876394      -2.69728672       0.00000000
Si       0.09728388       2.67341708       2.69886101       0.00000000
Si      -2.52906064       2.83412527      -0.17121084       0.00000000
Si       2.75595852      -0.03642444       2.64898018       0.00000000
Si       0.03979647      -2.80186374       2.60567252       0.00000000
