10
Lattice="16.290000149 0.0 0.0 0.0 16.290000149 0.0 0.0 0.0 29.1751946751" Properties=species:S:1:pos:R:3:initial_magmoms:R:1 pbc="T T T"
Si      -0.22297752       2.13325697       0.90618155       0.00000000
Si      -1.80219530      -0.75660535      -1.39320307       0.00000000
Si       0.34145469      -1.94657357       1.37922815       0.00000000
Si       2.10779570       0.60023764      -1.01941048       0.00000000
H        2.24425703      -0.22978674       1.57303897       0.00000000
H       -1.35177679       2.19695087       1.91170463       0.00000000
H       -1.04347225      -1.10048725       2.99985187       0.00000000
Si       1.94171915      -2.75064798      -0.13875723       0.00000000
H        2.85382884      -0.69994873       1.66575774       0.00000000
H        1.05836131      -1.87789493       2.70605766       0.00000000
