10
Lattice="16.290000149 0.0 0.0 0.0 16.290000149 0.0 0.0 0.0 29.1751946751" Properties=species:S:1:pos:R:3:initial_magmoms:R:1 pbc="T T T"
Si       1.38191329       1.44422254      -1.17558529       0.00000000
Si       1.70807168      -1.59202171       0.00720627       0.00000000
Si      -0.95425192       1.27448074       1.75182456       0.00000000
Si      -1.59382990      -0.81106282      -1.56425724       0.00000000
Si      -2.07290252       1.21953457      -2.62147877       0.00000000
Si      -0.18300186       2.72326448      -2.29760493       0.00000000
Si       0.63372988      -3.35246574      -1.05421648       0.00000000
Si      -2.40736880       2.69175962       0.53635678       0.00000000
Si      -0.30416688      -2.31614480      -2.88694386       0.00000000
Si       2.36006264      -2.01673460       2.13916904       0.00000000
