10
Lattice="16.290000149 0.0 0.0 0.0 16.290000149 0.0 0.0 0.0 29.1751946751" Properties=species:S:1:pos:R:3:initial_magmoms:R:1 pbc="T T T"
Si      -1.29634192       0.45844947      -0.65116117       0.00000000
Si       0.85449196      -2.20615472      -0.19421927       0.00000000
H        0.69408433       0.25086600      -2.36281149       0.00000000
Si       1.80706601      -0.49850658      -1.63693265       0.00000000
Si      -2.56021787       0.69744007       1.28779309       0.00000000
Si       0.45708111      -2.14503464       2.18921908       0.00000000
Si      -2.28027422      -1.53135775      -1.55095335       0.00000000
Si      -1.33113736      -0.61771681       2.80388208       0.00000000
Si      -1.00782973       2.47823030      -1.85513393       0.00000000
Si       3.13403313       1.05394672      -0.38164072       0.00000000
