10
Lattice="16.290000149 0.0 0.0 0.0 16.290000149 0.0 0.0 0.0 29.1751946751" Properties=species:S:1:pos:R:3:initial_magmoms:R:1 pbc="T T T"
Si      -1.28625841      -1.44347516       1.27796105       0.00000000
Si       1.30178278      -1.41407171      -1.33849958       0.00000000
Si      -1.43801605       1.62184675      -0.93194324       0.00000000
Si       1.18760617       1.15030826       1.69405768       0.00000000
Si      -0.81125830       2.02367218       2.67355649       0.00000000
Si      -2.32632605       0.17699867       2.59498769       0.00000000
Si       2.62331866       2.55723485       0.33040908       0.00000000
Si      -0.09252720       2.63585039      -2.57436083       0.00000000
Si       0.23602581      -2.42320464       2.80076034       0.00000000
Si       1.76231738      -0.58344460       3.21735294       0.00000000
