10
Lattice="16.290000149 0.0 0.0 0.0 16.290000149 0.0 0.0 0.0 29.1751946751" Properties=species:S:1:pos:R:3:initial_magmoms:R:1 pbc="T T T"
Si      -1.31841487      -1.32669019       1.36756683       0.00000000
Si       1.26598225      -1.42948009      -1.32187556       0.00000000
Si      -1.14326479       1.49639941      -1.38909520       0.00000000
Si       1.50778938       1.38267892       1.16996907       0.00000000
Si       1.95049946       0.33233229      -2.82795745       0.00000000
H       -2.30992202       0.98008786      -2.47485007       0.00000000
Si       0.53793001       2.28182177      -2.81996345       0.00000000
Si       0.10865430       2.73269639       2.53940603       0.00000000
Si       0.13172861      -2.71169858       2.59465509       0.00000000
Si      -2.57657303       0.07351677       2.73299220       0.00000000
