10
Lattice="16.290000149 0.0 0.0 0.0 16.290000149 0.0 0.0 0.0 29.1751946751" Properties=species:S:1:pos:R:3:initial_magmoms:R:1 pbc="T T T"
H        0.71690662       0.06867864       1.32682950       0.00000000
H       -1.38492694       0.84608632       1.62062371       0.00000000
Si       1.60026445      -0.80407441      -1.51798538       0.00000000
Si      -1.85930804      -1.47111733      -0.16816582       0.00000000
Si      -0.34145469       1.94657357      -1.37922815       0.00000000
H        1.90280234       1.71678683       0.19381082       0.00000000
H        2.51237414       1.24662484       0.28652959       0.00000000
Si      -0.78415174       0.92302399       3.02275439       0.00000000
Si       0.13444137      -1.81358201      -3.00492835       0.00000000
Si      -0.98386714      -3.25140258      -1.45298305       0.00000000
