10
Lattice="16.290000149 0.0 0.0 0.0 16.290000149 0.0 0.0 0.0 29.1751946751" Properties=species:S:1:pos:R:3:initial_magmoms:R:1 pbc="T T T"
Si       1.33122696       1.36006840       1.37893348       0.00000000
Si      -1.29485953      -1.31461930       1.46946411       0.00000000
Si      -1.38855961       1.35826021      -1.35857212       0.00000000
Si       1.39913508      -1.35001747      -1.36943696       0.00000000
Si      -0.10865430      -2.73269639      -2.53940603       0.00000000
Si       0.07079341       2.53895942      -2.77333857       0.00000000
Si      -2.68522733      -2.65917962       0.19358617       0.00000000
Si       2.67669137       2.68941386      -0.00217355       0.00000000
Si       2.70086573       0.01130526       2.74269878       0.00000000
Si       2.75885814      -2.68895774       0.01173426       0.00000000
