10
Lattice="16.290000149 0.0 0.0 0.0 16.290000149 0.0 0.0 0.0 29.1751946751" Properties=species:S:1:pos:R:3:initial_magmoms:R:1 pbc="T T T"
Si      -1.26598225       1.42948009       1.32187556       0.00000000
Si       1.63368665      -1.18366399       1.21256427       0.00000000
Si       0.68451721       1.76181239      -1.50608190       0.00000000
Si      -1.33524733      -1.97579783      -0.48769255       0.00000000
Si       0.29770301      -2.59012143       2.56487889       0.00000000
Si       0.16296842       0.85975363      -3.60121098       0.00000000
Si      -2.58439712       0.10278990       2.68944238       0.00000000
Si      -0.40126832      -2.79146746      -2.48047505       0.00000000
Si       0.24180713       2.81215902       2.49184462       0.00000000
Si      -2.40924704       2.92587951      -0.06721965       0.00000000
