10
Lattice="16.290000149 0.0 0.0 0.0 16.290000149 0.0 0.0 0.0 29.1751946751" Properties=species:S:1:pos:R:3:initial_magmoms:R:1 pbc="T T T"
Si      -1.33008405       1.40867776      -1.31151253       0.00000000
Si       1.33524668       1.37673307       1.34541410       0.00000000
Si       1.35027583      -1.32660874      -1.40682789       0.00000000
Si      -1.38509538      -1.33178896       1.36784983       0.00000000
Si      -2.72045185       0.06411744      -2.58739047       0.00000000
Si       2.64430132      -2.67960728       0.02517819       0.00000000
Si       2.67836371       0.01915704       2.70982126       0.00000000
Si       2.66564122       2.73460233      -0.03827786       0.00000000
Si      -0.05348561       2.73766485       2.66810073       0.00000000
Si      -2.75389522      -2.68043807       0.02981705       0.00000000
