10
Lattice="16.290000149 0.0 0.0 0.0 16.290000149 0.0 0.0 0.0 29.1751946751" Properties=species:S:1:pos:R:3:initial_magmoms:R:1 pbc="T T T"
Si       1.28625841       1.44347516      -1.27796105       0.00000000
Si      -1.04006764       1.62047383       1.31702664       0.00000000
Si       1.52228422      -0.97972948       1.52279929       0.00000000
Si      -1.58495185      -1.30412854      -1.20096771       0.00000000
Si       2.47386458       2.59378342       0.41609663       0.00000000
Si      -1.56535498       0.37295955       3.25128369       0.00000000
H        0.63099316      -2.22808106      -2.85800207       0.00000000
Si       2.58804119       0.02940345      -2.61646063       0.00000000
Si       3.04857579       0.86003056       1.93939189       0.00000000
Si       2.55691100      -2.72841212       0.27252549       0.00000000
