10
Lattice="16.290000149 0.0 0.0 0.0 16.290000149 0.0 0.0 0.0 29.1751946751" Properties=species:S:1:pos:R:3:initial_magmoms:R:1 pbc="T T T"
Si       1.41980383       1.30956940       1.31478015       0.00000000
Si       1.37839465      -1.34578207      -1.32344518       0.00000000
Si      -1.34820928      -1.36003582       1.35264955       0.00000000
Si      -1.36190917       1.39444030      -1.30626099       0.00000000
Si       0.05864400       2.68428251       2.57322300       0.00000000
Si       0.00869886      -2.70707222      -2.65187932       0.00000000
Si       2.72999226       0.04512330      -2.65167509       0.00000000
Si      -2.71702541       0.04214223      -2.66763393       0.00000000
Si       0.01229895       2.73810468      -2.64869922       0.00000000
Si       2.73422765      -2.67628412       0.06371863       0.00000000
