10
Lattice="16.290000149 0.0 0.0 0.0 16.290000149 0.0 0.0 0.0 29.1751946751" Properties=species:S:1:pos:R:3:initial_magmoms:R:1 pbc="T T T"
Si      -1.36036162      -1.35423658      -1.35361233       0.00000000
Si      -1.36950031       1.35360127       1.35110327       0.00000000
Si       1.34801380      -1.36081774       1.36595344       0.00000000
Si       1.35524656       1.34410420      -1.37578548       0.00000000
Si       2.69017949       2.69531084       0.01849707       0.00000000
Si      -2.69075616      -2.71210583       0.03007963       0.00000000
Si       0.01800045      -2.71383257      -2.68948615       0.00000000
Si       2.71311581      -0.00524538       2.71273878       0.00000000
Si      -0.02158425       2.69125463      -2.73523285       0.00000000
Si      -0.02968038       2.71707428       2.71551042       0.00000000
