10
Lattice="16.290000149 0.0 0.0 0.0 16.290000149 0.0 0.0 0.0 29.1751946751" Properties=species:S:1:pos:R:3:initial_magmoms:R:1 pbc="T T T"
Si       1.34845363       1.36133902       1.35130749       0.00000000
Si      -1.34311703       1.35757603      -1.36440715       0.00000000
Si       1.35847198      -1.35545833      -1.35501274       0.00000000
Si      -1.36885034      -1.36489024       1.34369277       0.00000000
Si      -0.03406239      -2.69876432      -2.68464306       0.00000000
Si       2.69348636      -0.02135619       2.69459180       0.00000000
Si      -2.67836371      -0.01915704      -2.70982126       0.00000000
Si      -0.04233771       2.71179632       2.68344688       0.00000000
Si       2.69565293       2.70886412      -0.02853334       0.00000000
Si       2.68882742      -2.72547992       0.01703831       0.00000000
