10
Lattice="16.290000149 0.0 0.0 0.0 16.290000149 0.0 0.0 0.0 29.1751946751" Properties=species:S:1:pos:R:3:initial_magmoms:R:1 pbc="T T T"
Si       0.28289703      -0.81270811      -2.15595936       0.00000000
Si      -2.26801925       0.48664746      -0.11646738       0.00000000
Si       1.28346142       1.98780193       0.11629233       0.00000000
Si       1.02912565      -1.54686583       1.48008680       0.00000000
Si      -2.54856564       1.22207744       2.08958579       0.00000000
Si       3.35142807       1.26081669       0.96050576       0.00000000
Si       2.56893791      -0.23530905       2.67052227       0.00000000
Si       1.92634627      -2.47446731      -2.05971039       0.00000000
Si       1.20106660       0.91360837      -3.43800494       0.00000000
Si       2.39132804      -2.89554753       0.15331565       0.00000000
