10
Lattice="16.290000149 0.0 0.0 0.0 16.290000149 0.0 0.0 0.0 29.1751946751" Properties=species:S:1:pos:R:3:initial_magmoms:R:1 pbc="T T T"
Si       2.26801925      -0.48664746       0.11646738       0.00000000
Si      -0.28054638       0.73542998       2.20605317       0.00000000
Si      -0.57471121       1.73375286      -1.52329526       0.00000000
Si      -1.52629156      -1.83976004      -0.41659260       0.00000000
H       -1.33108849       1.84544850       2.22207035       0.00000000
Si       2.55091628      -1.29935557      -2.03949198       0.00000000
Si      -1.11488761      -1.19413846       3.22420911       0.00000000
Si      -2.57357567       2.60711678      -0.54379645       0.00000000
Si      -2.68188788      -1.97364755       1.63535719       0.00000000
Si      -3.04857579      -0.86003056      -1.93939189       0.00000000
