10
Lattice="16.290000149 0.0 0.0 0.0 16.290000149 0.0 0.0 0.0 29.1751946751" Properties=species:S:1:pos:R:3:initial_magmoms:R:1 pbc="T T T"
Si      -1.41441184      -1.29539710      -1.34222496       0.00000000
Si      -1.38199474       1.35651718       1.32382738       0.00000000
Si       1.32059773       1.40393737      -1.34233699       0.00000000
Si       1.37179720      -1.41227785       1.30327053       0.00000000
Si       2.62578512       2.58773168       0.20965295       0.00000000
Si       2.66178602       0.04926096      -2.68574880       0.00000000
Si      -0.10824705      -2.72192870      -2.64178179       0.00000000
Si      -2.73520506      -0.04153950       2.64377153       0.00000000
Si      -2.69179220       0.19995975      -2.68186850       0.00000000
Si      -0.04455315       2.68113854       2.72843795       0.00000000
