10
Lattice="16.290000149 0.0 0.0 0.0 16.290000149 0.0 0.0 0.0 29.1751946751" Properties=species:S:1:pos:R:3:initial_magmoms:R:1 pbc="T T T"
H        0.90591949      -0.90231940       0.80578970       0.00000000
Si       1.34500015       1.31189887      -1.38993545       0.00000000
Si      -1.14267835       1.42964299       1.46228993       0.00000000
Si      -1.31761666      -1.46315152      -1.27880713       0.00000000
H       -1.11281878      -1.23390235       2.23058951       0.00000000
Si      -2.54515614       2.64517022       0.05079401       0.00000000
Si      -0.49956543      -2.54332677       2.67025969       0.00000000
Si      -2.66607029      -0.12852810      -2.65444674       0.00000000
Si      -0.00068418       2.66668931      -2.70576590       0.00000000
Si       2.72991081       2.66546756      -0.09575299       0.00000000
