10
Lattice="16.290000149 0.0 0.0 0.0 16.290000149 0.0 0.0 0.0 29.1751946751" Properties=species:S:1:pos:R:3:initial_magmoms:R:1 pbc="T T T"
Si      -0.99833266       1.85616407      -0.87785243       0.00000000
Si      -1.76464685      -1.48204792       0.33557309       0.00000000
Si       0.37445823       0.64651753       2.22460859       0.00000000
Si       1.75614347      -0.98613145      -1.25392069       0.00000000
H       -0.41873445      -1.25895637      -2.57246444       0.00000000
Si       1.87341518      -1.21811734       2.57401073       0.00000000
Si       2.50014035      -2.30208653       0.53387689       0.00000000
Si      -2.46415574       0.84665647      -2.36479540       0.00000000
Si      -1.07031817      -3.52839286      -0.43444782       0.00000000
Si      -3.58246425      -0.59116411      -0.81285010       0.00000000
