10
Lattice="16.290000149 0.0 0.0 0.0 16.290000149 0.0 0.0 0.0 29.1751946751" Properties=species:S:1:pos:R:3:initial_magmoms:R:1 pbc="T T T"
Si       1.38199474      -1.35651718      -1.32382738       0.00000000
Si       1.33744159       1.32462136       1.40461057       0.00000000
Si      -1.35321031      -1.39805668       1.31994416       0.00000000
Si      -1.32880789       1.39549915      -1.36961784       0.00000000
Si      -0.03241710      -2.65191428      -2.66605234       0.00000000
Si      -2.65867463       2.70984152       0.04988083       0.00000000
Si       2.70259247       0.04742019      -2.66616437       0.00000000
Si      -2.70479162      -0.02871927       2.67860380       0.00000000
Si      -2.75595852       0.03642444      -2.64898018       0.00000000
Si       2.68724729       2.71990651       0.09410459       0.00000000
