10
Lattice="16.290000149 0.0 0.0 0.0 16.290000149 0.0 0.0 0.0 29.1751946751" Properties=species:S:1:pos:R:3:initial_magmoms:R:1 pbc="T T T"
Si      -1.35524656      -1.34410420       1.37578548       0.00000000
Si       1.33493293       1.35120664       1.39428255       0.00000000
Si      -1.37683081       1.34715043      -1.35944737       0.00000000
Si       1.36303318      -1.37357281      -1.34935275       0.00000000
Si       2.71445159      -2.69259041       0.05832121       0.00000000
Si       2.69856884       2.71290404       0.06471058       0.00000000
Si      -2.71560818      -2.69834078       0.02217315       0.00000000
Si      -0.02362050       2.74520712      -2.67939153       0.00000000
Si       2.73017144      -0.02358792      -2.69994837       0.00000000
Si      -2.72841213       2.71648784      -0.00078773       0.00000000
