10
Lattice="16.290000149 0.0 0.0 0.0 16.290000149 0.0 0.0 0.0 29.1751946751" Properties=species:S:1:pos:R:3:initial_magmoms:R:1 pbc="T T T"
Si       2.24415929      -0.51251598       0.28399135       0.00000000
Si      -1.57175695      -1.69323637      -0.43444782       0.00000000
Si      -0.72887977       0.62442829       2.18464208       0.00000000
Si      -0.07550415       1.46197864      -1.94035467       0.00000000
H        0.25852230      -1.11737672      -2.81248877       0.00000000
Si      -2.82755307      -0.58966543      -2.03829580       0.00000000
Si      -1.30901554       3.30983481      -1.27693992       0.00000000
Si       1.30906441      -2.22739525      -2.82850595       0.00000000
Si       3.17813830      -1.32818561      -1.70879115       0.00000000
H        0.00350235       3.87284980      -0.38129062       0.00000000
