10
Lattice="16.290000149 0.0 0.0 0.0 16.290000149 0.0 0.0 0.0 29.1751946751" Properties=species:S:1:pos:R:3:initial_magmoms:R:1 pbc="T T T"
Si       1.34117689       1.36163224       1.35437089       0.00000000
Si      -1.33493293       1.37531584      -1.35480852       0.00000000
Si       1.36602891      -1.35081568      -1.35046141       0.00000000
Si      -1.35410626      -1.34667802       1.37537703       0.00000000
Si      -2.69389361       0.01057221      -2.68621852       0.00000000
Si       2.67230936      -0.00021177       2.71466434       0.00000000
Si      -0.00381186      -2.72036486      -2.67545288       0.00000000
Si      -2.68237658       2.72256401       0.01175760       0.00000000
Si       2.69521310      -2.71288775       0.02144377       0.00000000
Si       2.69254154       2.72587088      -0.01070730       0.00000000
