10
Lattice="16.290000149 0.0 0.0 0.0 16.290000149 0.0 0.0 0.0 29.1751946751" Properties=species:S:1:pos:R:3:initial_magmoms:R:1 pbc="T T T"
Si       1.36363591       1.36169740      -1.32957197       0.00000000
Si      -1.35014779       1.36533007       1.35527532       0.00000000
Si       1.38367261      -1.33807690       1.35054894       0.00000000
Si      -1.33493293      -1.35120664      -1.39428255       0.00000000
Si       2.69967656      -0.07960923      -2.61864877       0.00000000
Si      -2.69017949      -2.69531084      -0.01849707       0.00000000
Si      -0.02111184       2.71862183      -2.66906351       0.00000000
Si       0.02293632      -2.70055622       2.69424170       0.00000000
Si      -2.71985987       0.02176344       2.69701335       0.00000000
Si       0.01648548       2.72714150       2.70774982       0.00000000
