10
Lattice="16.290000149 0.0 0.0 0.0 16.290000149 0.0 0.0 0.0 29.1751946751" Properties=species:S:1:pos:R:3:initial_magmoms:R:1 pbc="T T T"
Si      -0.28289703       0.81270811       2.15595936       0.00000000
Si      -1.76766050      -1.00763425      -1.15020287       0.00000000
Si       0.91816957       1.72631648      -1.28204558       0.00000000
Si       1.64344925      -1.66175921       0.09624897       0.00000000
Si      -0.44240219      -2.32463189      -2.57511938       0.00000000
Si      -2.55091628       1.29935557       2.03949198       0.00000000
Si       2.43862931       0.45530550      -2.49684234       0.00000000
Si       3.47157822      -0.36825174      -0.54297955       0.00000000
Si       1.00056439       2.80051004       2.27225169       0.00000000
Si       2.10843101      -2.08283942       2.30927501       0.00000000
