10
Lattice="16.290000149 0.0 0.0 0.0 16.290000149 0.0 0.0 0.0 29.1751946751" Properties=species:S:1:pos:R:3:initial_magmoms:R:1 pbc="T T T"
Si      -1.35609364      -1.34943103      -1.35483769       0.00000000
Si      -1.34420194       1.33059979       1.38681370       0.00000000
Si       1.34037379       1.35345466      -1.38561752       0.00000000
Si       1.34543998      -1.38078928       1.35457511       0.00000000
Si       0.06884154      -2.70977636      -2.62503814       0.00000000
Si      -2.70681158       2.67092471       0.02316510       0.00000000
Si       2.70461895       2.68337027      -0.00656442       0.00000000
Si       2.69492803      -0.03508866      -2.71556877       0.00000000
Si      -2.69579954      -0.06030558       2.71504362       0.00000000
Si       2.69723469      -0.02814912       2.71580217       0.00000000
