10
Lattice="16.290000149 0.0 0.0 0.0 16.290000149 0.0 0.0 0.0 29.1751946751" Properties=species:S:1:pos:R:3:initial_magmoms:R:1 pbc="T T T"
Si       1.16665723       0.51631155       1.08575487       0.00000000
Si      -1.31251789      -0.56301499      -0.89564930       0.00000000
Si      -0.07900650      -2.41087115      -1.55906405       0.00000000
Si      -0.36662274       1.78945652       2.28899825       0.00000000
Si       2.84785204       1.30173391      -0.34511338       0.00000000
Si      -3.08938224      -1.15476553       0.56063054       0.00000000
Si       2.30992202      -0.98008786       2.47485007       0.00000000
Si      -2.37298061       0.77400307      -2.49065719       0.00000000
Si      -1.84137275       2.99964063       0.83697798       0.00000000
H       -0.26850807       0.80800030      -3.77559112       0.00000000
