10
Lattice="16.290000149 0.0 0.0 0.0 16.290000149 0.0 0.0 0.0 29.1751946751" Properties=species:S:1:pos:R:3:initial_magmoms:R:1 pbc="T T T"
Si       1.29542968       1.43596351       1.31165840       0.00000000
Si      -1.35439948       1.36616086      -1.33777020       0.00000000
Si      -1.30740283      -1.34727424       1.42284507       0.00000000
Si       1.42555420      -1.36145631      -1.29782936       0.00000000
Si       2.53508240       0.04805550       2.68370946       0.00000000
Si      -2.65201202      -2.69394248       0.03576879       0.00000000
Si       0.06384051      -2.70422147      -2.67495690       0.00000000
Si      -2.70998813      -0.00158013      -2.67478185       0.00000000
Si       0.02316438       2.70402599      -2.69578799       0.00000000
Si       2.76061746       0.00298107      -2.66594176       0.00000000
