10
Lattice="16.290000149 0.0 0.0 0.0 16.290000149 0.0 0.0 0.0 29.1751946751" Properties=species:S:1:pos:R:3:initial_magmoms:R:1 pbc="T T T"
Si       0.08294868      -0.69243904      -2.22952753       0.00000000
Si      -0.98878672      -1.78727691       1.15241727       0.00000000
Si       1.83982520       0.88207093       1.18431160       0.00000000
Si      -1.63326799       1.73516195      -0.08362194       0.00000000
H        2.53369775      -0.94640014      -0.73555334       0.00000000
Si      -2.30415536      -0.46413468       2.55319714       0.00000000
Si       0.55216585       2.32994243       2.51407612       0.00000000
Si      -2.12164220      -0.31136706      -3.03353755       0.00000000
Si      -2.07371702       1.98259076      -2.36638837       0.00000000
Si       2.02171934       0.33612786      -3.13185795       0.00000000
