10
Lattice="16.290000149 0.0 0.0 0.0 16.290000149 0.0 0.0 0.0 29.1751946751" Properties=species:S:1:pos:R:3:initial_magmoms:R:1 pbc="T T T"
H       -1.16665723      -0.51631155      -1.08575487       0.00000000
Si      -1.53327997       1.27314496       1.20324338       0.00000000
Si       1.14326479      -1.49639941       1.38909520       0.00000000
Si       1.68119480       0.78542236      -1.43086825       0.00000000
Si      -2.47917512      -1.07932654      -1.98140417       0.00000000
Si       3.09376425      -1.16406712      -1.43886225       0.00000000
Si      -0.13664052       2.59455719       2.56992912       0.00000000
Si       2.65105417      -0.11372049       2.55906427       0.00000000
Si       2.78644362       2.49505787      -0.18502908       0.00000000
Si       2.40924704      -2.92587951       0.06721965       0.00000000
