10
Lattice="16.290000149 0.0 0.0 0.0 16.290000149 0.0 0.0 0.0 29.1751946751" Properties=species:S:1:pos:R:3:initial_magmoms:R:1 pbc="T T T"
Si      -1.31536864       1.32314223       1.40077987       0.00000000
Si       0.98878672       1.78727691      -1.15241727       0.00000000
Si       1.38290698      -1.32401761       1.36601179       0.00000000
Si      -1.29793834      -1.28357187      -1.50612566       0.00000000
Si      -2.51845031       2.72017264      -0.04050101       0.00000000
Si       1.07173540       1.09483788      -3.38194480       0.00000000
Si      -2.63314820      -2.64842497      -0.09771064       0.00000000
Si      -0.64448128       3.52243886      -1.23603922       0.00000000
Si       0.11336211       2.72696557       2.64325805       0.00000000
Si       0.03310128      -2.71930276       2.67651777       0.00000000
