10
Lattice="16.290000149 0.0 0.0 0.0 16.290000149 0.0 0.0 0.0 29.1751946751" Properties=species:S:1:pos:R:3:initial_magmoms:R:1 pbc="T T T"
Si       1.29329732       1.42068349       1.30637769       0.00000000
Si      -1.31284369       1.37994220      -1.34334266       0.00000000
Si       1.40783394      -1.30049587      -1.33000960       0.00000000
Si      -1.33066495      -1.31588992       1.45167016       0.00000000
Si       0.01609452      -2.67814118      -2.63851708       0.00000000
Si      -2.55412541       2.76056859       0.05654153       0.00000000
Si       2.80261308      -2.53933409       0.08985960       0.00000000
Si      -2.70340697       0.02739978      -2.67860380       0.00000000
Si       2.71132391       0.20294082       2.68805656       0.00000000
Si      -2.72921034      -2.67856472       0.12641612       0.00000000
