10
Lattice="16.290000149 0.0 0.0 0.0 16.290000149 0.0 0.0 0.0 29.1751946751" Properties=species:S:1:pos:R:3:initial_magmoms:R:1 pbc="T T T"
Si      -1.43762509       1.45036387       1.09821268       0.00000000
Si      -1.36280512      -1.30398193      -1.38730968       0.00000000
Si       1.34721559       1.40056534      -1.34074607       0.00000000
Si       1.32141223      -1.30539916       1.46427385       0.00000000
H       -0.57036178       2.42227415       1.83135614       0.00000000
Si      -2.69117318      -2.63627588       0.00169216       0.00000000
Si       2.71104698      -2.64803726       0.09907896       0.00000000
Si       0.01226637      -2.65743659      -2.70996713       0.00000000
Si       2.72956871       0.05973543      -2.67959575       0.00000000
Si      -2.71823087       0.03671766      -2.76318269       0.00000000
