10
Lattice="16.290000149 0.0 0.0 0.0 16.290000149 0.0 0.0 0.0 29.1751946751" Properties=species:S:1:pos:R:3:initial_magmoms:R:1 pbc="T T T"
Si      -1.23351139       1.84785617       0.66341475       0.00000000
Si      -1.53518590      -0.73371790      -1.59786706       0.00000000
Si       1.62131113       0.69139648      -1.55325819       0.00000000
Si       0.07550415      -1.46197864       1.94035467       0.00000000
H        0.33402645      -2.57935537      -0.87213409       0.00000000
H        0.07900650       2.41087115       1.55906405       0.00000000
H        1.55836657      -0.36768159      -2.62710958       0.00000000
Si      -2.75204892      -2.05164407      -0.09794113       0.00000000
Si       2.31966344      -1.97449463       2.22434602       0.00000000
Si      -3.03414285       1.13091697      -1.94726919       0.00000000
