10
Lattice="16.290000149 0.0 0.0 0.0 16.290000149 0.0 0.0 0.0 29.1751946751" Properties=species:S:1:pos:R:3:initial_magmoms:R:1 pbc="T T T"
Si       1.36424516       1.32991561       1.37905310       0.00000000
Si       1.35455424      -1.38854332      -1.32995125       0.00000000
Si      -1.34037379      -1.35345466       1.38561752       0.00000000
Si      -1.34824186       1.38437308      -1.36248159       0.00000000
Si      -2.69151527       2.68776857       0.06214316       0.00000000
Si       2.71138907       2.67752216       0.01085317       0.00000000
Si      -2.69646743      -2.70288569       0.03077983       0.00000000
Si       2.70001865      -0.05919786      -2.71105828       0.00000000
Si      -2.69434973       0.05066190      -2.75188605       0.00000000
Si       0.03411952       2.67903713       2.77070989       0.00000000
