10
Lattice="16.290000149 0.0 0.0 0.0 16.290000149 0.0 0.0 0.0 29.1751946751" Properties=species:S:1:pos:R:3:initial_magmoms:R:1 pbc="T T T"
Si       1.38487807      -1.31450527      -1.35836789       0.00000000
Si       1.36969579       1.36129015       1.32843414       0.00000000
Si      -1.35653347       1.37016820      -1.33855793       0.00000000
Si      -1.35521398      -1.35664750       1.35690913       0.00000000
Si       0.00607617      -2.67843440      -2.66305342       0.00000000
Si      -0.00869886       2.70707222       2.65187932       0.00000000
Si       0.02358792       2.68798034      -2.70217736       0.00000000
Si       2.71401176      -2.68120370       0.01762182       0.00000000
Si      -2.73259866       0.01027899       2.66769228       0.00000000
Si      -2.73533538      -2.69123834       0.01333306       0.00000000
