10
Lattice="16.290000149 0.0 0.0 0.0 16.290000149 0.0 0.0 0.0 29.1751946751" Properties=species:S:1:pos:R:3:initial_magmoms:R:1 pbc="T T T"
Si       1.29870397       1.48483351      -1.27326647       0.00000000
Si       1.37370313      -1.35158131       1.36037514       0.00000000
Si      -1.38504097       1.37130850       1.34947821       0.00000000
Si      -1.17260308      -1.46800594      -1.44902397       0.00000000
Si       2.60486876       0.05830191      -2.57282329       0.00000000
Si      -2.52720782      -0.05934447      -2.76187856       0.00000000
Si      -2.66259727      -2.66812283      -0.01778520       0.00000000
Si       0.01749546      -2.66639609       2.75847673       0.00000000
Si       2.71777475       0.01796787       2.72282464       0.00000000
Si      -0.02208924       2.73869112       2.71273002       0.00000000
