10
Lattice="16.290000149 0.0 0.0 0.0 16.290000149 0.0 0.0 0.0 29.1751946751" Properties=species:S:1:pos:R:3:initial_magmoms:R:1 pbc="T T T"
Si       1.31841487       1.32669019      -1.36756683       0.00000000
Si      -1.25815816       1.40020696       1.36542537       0.00000000
Si      -1.72388927      -0.94164346      -1.27648420       0.00000000
Si       1.45014349      -1.38500839       1.22708827       0.00000000
Si      -3.42889842       0.72729964      -1.14982360       0.00000000
Si      -2.57303810       2.66348018      -0.10792780       0.00000000
Si      -2.59019147      -2.66914096       0.10716633       0.00000000
Si       2.58439712      -0.10278990      -2.68944238       0.00000000
Si      -2.66880701      -0.00430056       2.62347727       0.00000000
Si       2.81256952       0.00948078       2.54598795       0.00000000
