10
Lattice="16.290000149 0.0 0.0 0.0 16.290000149 0.0 0.0 0.0 29.1751946751" Properties=species:S:1:pos:R:3:initial_magmoms:R:1 pbc="T T T"
Si      -1.36242604      -1.39448917      -1.31889969       0.00000000
Si       1.29402548      -1.35299854       1.43200608       0.00000000
Si      -1.35027583       1.32660874       1.40682789       0.00000000
Si       1.37335778       1.36094806      -1.36241449       0.00000000
Si      -2.66134945      -2.68509864       0.15363658       0.00000000
Si      -2.81256952      -0.00948078      -2.54598795       0.00000000
Si       0.06953061      -2.70239211      -2.67055144       0.00000000
Si       2.69372746       2.70161507       0.03267622       0.00000000
Si       2.65007026      -2.74824520       0.14255000       0.00000000
Si      -2.68035988       2.73528651       0.09531536       0.00000000
