10
Lattice="16.290000149 0.0 0.0 0.0 16.290000149 0.0 0.0 0.0 29.1751946751" Properties=species:S:1:pos:R:3:initial_magmoms:R:1 pbc="T T T"
Si       1.80802712       1.32827684       0.60529776       0.00000000
Si      -0.73366903      -0.34296152       2.26171944       0.00000000
Si      -1.22614831       1.86545588      -0.95175320       0.00000000
Si       1.61126020      -1.53195397      -1.07907375       0.00000000
H        0.71687404      -2.51435501       0.99251095       0.00000000
H       -1.19479006      -2.93261705      -0.24921451       0.00000000
Si      -0.28207764      -2.86524161      -1.46246498       0.00000000
Si       0.47535849       2.87558250       1.76151073       0.00000000
Si      -1.46341216       1.84701560       2.66384115       0.00000000
Si      -1.16512597      -1.44900529      -3.06114895       0.00000000
