10
Lattice="16.290000149 0.0 0.0 0.0 16.290000149 0.0 0.0 0.0 29.1751946751" Properties=species:S:1:pos:R:3:initial_magmoms:R:1 pbc="T T T"
H        0.60957181      -0.47016198       0.09271877       0.00000000
H       -1.18589572      -1.64810818       1.13301869       0.00000000
Si      -1.90280234      -1.71678683      -0.19381082       0.00000000
Si       0.81267553       1.74366533       1.76238598       0.00000000
Si      -0.13646133       0.83002438      -2.59244945       0.00000000
Si      -2.24425703       0.22978674      -1.57303897       0.00000000
Si       2.60089400       0.21634749       1.14772298       0.00000000
Si       1.31307175      -0.98577307      -2.47181002       0.00000000
Si      -0.30253788      -2.52086123      -1.71179620       0.00000000
Si      -0.41640498       3.05882220       0.24629699       0.00000000
