10
Lattice="16.290000149 0.0 0.0 0.0 16.290000149 0.0 0.0 0.0 29.1751946751" Properties=species:S:1:pos:R:3:initial_magmoms:R:1 pbc="T T T"
Si      -1.53981226      -1.31155678      -1.19043547       0.00000000
Si      -1.40859631       1.18043857       1.46990466       0.00000000
Si       1.38872251      -1.31444011       1.42952619       0.00000000
Si       0.78249016       1.49612574      -1.71001651       0.00000000
H        1.17934714      -2.08243217      -2.24243464       0.00000000
Si      -1.28547649       2.22311098      -2.55422994       0.00000000
Si      -0.17760987      -2.66023847      -2.51720662       0.00000000
Si      -2.56893791       0.23530905      -2.67052227       0.00000000
Si       0.03782538       2.62160674       2.74518159       0.00000000
H       -0.60988132       3.78283125       0.02328181       0.00000000
