10
Lattice="16.28999089631971 0.0 0.0 0.0 16.28999089631971 0.0 0.0 0.0 34.32429715621058" Properties=species:S:1:pos:R:3:initial_magmoms:R:1 pbc="T T T"
Si       2.22163834       0.84126447       0.37578262       0.00000000
Si      -1.46608275       1.82236230       0.80799441       0.00000000
Si      -1.39947294       0.00571779      -2.07795979       0.00000000
Si       0.23929521      -2.60988720      -0.00161324       0.00000000
Si      -0.36549352      -1.24068387       2.36075783       0.00000000
Si      -3.17835723       0.16918794       0.88848493       0.00000000
Si       1.76035441       2.91577968      -0.69932362       0.00000000
Si       0.38775087       0.63570096       3.56406539       0.00000000
Si       3.49611907      -0.79599456      -0.73371659       0.00000000
Si      -3.50129019      -0.70255512      -1.25280322       0.00000000
