10
Lattice="16.28999089631971 0.0 0.0 0.0 16.28999089631971 0.0 0.0 0.0 34.32429715621058" Properties=species:S:1:pos:R:3:initial_magmoms:R:1 pbc="T T T"
Si      -1.34962650      -1.36230731      -1.36040995       0.00000000
Si       1.29608127      -1.42302014       1.35059320       0.00000000
Si       1.36474362       1.34957763      -1.36030698       0.00000000
Si      -1.31805648       1.35092970       1.49465235       0.00000000
Si       2.03831883       0.40055481       2.65649614       0.00000000
Si      -2.15062209      -0.55727276       2.59529588       0.00000000
Si      -0.61872678      -2.46443984       2.55599454       0.00000000
Si       0.44206173       2.32859034       2.80872448       0.00000000
Si      -2.70752832      -0.00749992      -2.71546531       0.00000000
Si       0.00796581       2.71005327      -2.71467585       0.00000000
