10
Lattice="16.28999089631971 0.0 0.0 0.0 16.28999089631971 0.0 0.0 0.0 34.32429715621058" Properties=species:S:1:pos:R:3:initial_magmoms:R:1 pbc="T T T"
Si      -1.17291258      -0.29348064       2.06000817       0.00000000
Si       2.22379677      -0.92913273       0.43509503       0.00000000
Si      -0.38978712       1.97508105      -1.41587805       0.00000000
Si       1.04422158      -1.85094799      -1.86106443       0.00000000
Si      -0.95926923      -2.73498416      -0.88484655       0.00000000
Si       0.03424158      -2.16178726       2.94269229       0.00000000
Si      -2.73426021       2.27012553      -1.16603135       0.00000000
Si      -0.86778459       1.76326218       3.18876331       0.00000000
Si      -3.71612367       0.18477747      -0.76766333       0.00000000
Si      -3.44194668      -0.63255699       1.56923909       0.00000000
