10
Lattice="16.28999089631971 0.0 0.0 0.0 16.28999089631971 0.0 0.0 0.0 34.32429715621058" Properties=species:S:1:pos:R:3:initial_magmoms:R:1 pbc="T T T"
Si      -1.36314720      -1.35622395      -1.33538066       0.00000000
Si       1.35738054      -1.35531171       1.35828185       0.00000000
Si      -1.35703845       1.35751086       1.35762968       0.00000000
Si       1.34972424       1.38761478      -1.36224630       0.00000000
Si      -2.60923446       0.04189788      -2.73877496       0.00000000
Si       2.64007143       0.01552437      -2.76211206       0.00000000
Si      -2.71350675      -2.71279813      -0.00003432       0.00000000
Si       2.71572219      -2.71117728      -0.00411892       0.00000000
Si       2.71305063       2.71454931      -0.00082378       0.00000000
Si      -0.00008145      -2.71281117       2.71560261       0.00000000
