10
Lattice="16.28999089631971 0.0 0.0 0.0 16.28999089631971 0.0 0.0 0.0 34.32429715621058" Properties=species:S:1:pos:R:3:initial_magmoms:R:1 pbc="T T T"
Si      -0.30512799      -2.05674282      -1.12875514       0.00000000
Si       2.32186257       0.38196792      -0.27984615       0.00000000
Si      -0.99077409       2.08010268      -0.76601577       0.00000000
Si       0.09892917      -0.42357258       2.39374350       0.00000000
Si       2.29493520       2.61061911       0.54901744       0.00000000
Si       0.90153747       3.35437164      -1.26220808       0.00000000
Si       0.86778459      -1.76326218      -3.18876331       0.00000000
Si       3.40309503      -1.32284574       0.88972060       0.00000000
Si      -2.57416209      -2.39581917      -1.61952422       0.00000000
Si       2.30630562      -1.13717232       2.96060958       0.00000000
