10
Lattice="16.28999089631971 0.0 0.0 0.0 16.28999089631971 0.0 0.0 0.0 34.32429715621058" Properties=species:S:1:pos:R:3:initial_magmoms:R:1 pbc="T T T"
Si       0.91399932       1.76505408       1.26546344       0.00000000
Si      -1.72315620      -1.00993113       1.34116572       0.00000000
Si      -0.56000133       1.03430097      -2.13775275       0.00000000
Si       1.62934209      -1.91132199       0.24259779       0.00000000
Si       1.64520855       0.93812481      -2.91190338       0.00000000
Si      -0.98254764      -1.01610504      -3.20661196       0.00000000
Si       2.23580250       0.33578577       2.71769437       0.00000000
Si      -0.47706894      -2.40805296       2.74456002       0.00000000
Si      -2.86440102      -2.51778240      -0.14460834       0.00000000
Si       2.18585736       3.15561735      -0.33908992       0.00000000
