10
Lattice="16.28999089631971 0.0 0.0 0.0 16.28999089631971 0.0 0.0 0.0 34.32429715621058" Properties=species:S:1:pos:R:3:initial_magmoms:R:1 pbc="T T T"
Si       1.34687349       1.34594496       1.36847617       0.00000000
Si       1.35511623      -1.35940050      -1.35848779       0.00000000
Si      -1.36060596       1.35464382      -1.35776698       0.00000000
Si      -1.37472939      -1.35311256       1.37726319       0.00000000
Si       2.71226871       2.71567332       0.00291757       0.00000000
Si       2.71277370      -0.00118917      -2.71539667       0.00000000
Si      -0.00192222       2.71331127      -2.71515640       0.00000000
Si       2.71357191      -2.71630863       0.00044622       0.00000000
Si      -2.71873584       2.71192662       0.00061784       0.00000000
Si      -0.00188964      -2.71645524      -2.71577423       0.00000000
