10
Lattice="16.28999089631971 0.0 0.0 0.0 16.28999089631971 0.0 0.0 0.0 34.32429715621058" Properties=species:S:1:pos:R:3:initial_magmoms:R:1 pbc="T T T"
Si      -0.17651844      -2.33064288      -0.03047999       0.00000000
Si      -0.81409275       0.47635218       2.17073841       0.00000000
Si      -1.47613464       1.29112911      -1.41261724       0.00000000
Si       2.34712836       0.33793605      -0.49258826       0.00000000
Si      -1.69787412       3.33674586      -0.17114104       0.00000000
Si       1.21687929      -3.07439541       1.78074553       0.00000000
Si      -1.46217411       2.77123851       2.13981220       0.00000000
Si      -2.99164221      -0.42601608       2.32646784       0.00000000
Si       0.05497875      -3.14110296      -2.29564460       0.00000000
Si       2.63844243       2.21542371      -1.91155550       0.00000000
