10
Lattice="16.28999089631971 0.0 0.0 0.0 16.28999089631971 0.0 0.0 0.0 34.32429715621058" Properties=species:S:1:pos:R:3:initial_magmoms:R:1 pbc="T T T"
Si       1.69402968       0.20414628       1.61149233       0.00000000
Si      -0.96042582       2.17660464       0.49701610       0.00000000
Si      -0.73562382      -2.33178318      -0.07410620       0.00000000
Si       0.94781736       0.26974611      -2.24522218       0.00000000
Si      -2.11072788      -1.71626553      -1.98600494       0.00000000
Si      -0.82108116      -2.21143266       2.61808723       0.00000000
Si      -0.72260811       3.01138569      -1.69342447       0.00000000
Si      -1.11972573      -0.14595840      -3.40119651       0.00000000
Si       1.42799769      -3.39472197       0.39836802       0.00000000
Si      -3.59769537      -0.96697440      -0.20450428       0.00000000
