10
Lattice="16.28999089631971 0.0 0.0 0.0 16.28999089631971 0.0 0.0 0.0 34.32429715621058" Properties=species:S:1:pos:R:3:initial_magmoms:R:1 pbc="T T T"
Si      -0.91152324      -1.77898203      -1.21720891       0.00000000
Si      -0.34248096      -1.10522763       2.08973303       0.00000000
Si      -1.53189531       1.90716708       0.03930134       0.00000000
Si       1.91480805       1.04141970      -1.20540134       0.00000000
Si      -2.08987668      -0.26855694      -2.57452967       0.00000000
Si       0.31574907       0.97106319       3.24759519       0.00000000
Si      -1.78166988       1.90322816       2.34723405       0.00000000
Si       0.61872678       2.46443984      -2.55599454       0.00000000
Si       2.31923988       1.85509935       2.27137731       0.00000000
Si      -3.39781707       1.07486307      -1.21614485       0.00000000
