10
Lattice="16.28999089631971 0.0 0.0 0.0 16.28999089631971 0.0 0.0 0.0 34.32429715621058" Properties=species:S:1:pos:R:3:initial_magmoms:R:1 pbc="T T T"
Si       1.42224732       1.70930970      -0.69218416       0.00000000
Si      -2.17196199       0.82012005      -0.48493394       0.00000000
Si       0.23570001      -0.56550735       2.31095325       0.00000000
Si       0.22173948      -2.04561675      -1.24147620       0.00000000
Si      -3.20393349      -0.69427980       0.99955842       0.00000000
Si      -2.00769363       0.00097740       2.89717824       0.00000000
Si      -2.30479065       0.49075254      -2.83536015       0.00000000
Si       1.69787412      -3.33674586       0.17114104       0.00000000
Si       0.88378137      -2.86039368       2.34187946       0.00000000
Si      -1.95799284      -2.92311018      -1.56172207       0.00000000
