10
Lattice="16.28999089631971 0.0 0.0 0.0 16.28999089631971 0.0 0.0 0.0 34.32429715621058" Properties=species:S:1:pos:R:3:initial_magmoms:R:1 pbc="T T T"
Si      -2.19294351       0.09335799       0.75376199       0.00000000
Si       1.19044062       1.56310695       1.28987348       0.00000000
Si       0.23781771       0.83478105      -2.19044057       0.00000000
Si       0.96042582      -2.17660464      -0.49701610       0.00000000
Si       3.18542805       0.36588969       1.13750784       0.00000000
Si       2.65445550      -1.97245836       1.11447623       0.00000000
Si      -3.44311630      -0.96210369      -0.92919357       0.00000000
Si       2.52053541       0.44124723      -2.71759342       0.00000000
Si      -2.88582237       2.31516738       0.74421983       0.00000000
Si      -0.19774431       3.07178901      -2.29482082       0.00000000
