10
Lattice="16.28999089631971 0.0 0.0 0.0 16.28999089631971 0.0 0.0 0.0 34.32429715621058" Properties=species:S:1:pos:R:3:initial_magmoms:R:1 pbc="T T T"
Si      -1.35760860       1.35770634      -1.35690887       0.00000000
Si       1.35752715       1.35726651       1.35759536       0.00000000
Si      -1.35837423      -1.35753041       1.35725212       0.00000000
Si       1.35826020      -1.35790671      -1.35721779       0.00000000
Si      -2.71407690      -0.00294849       2.71295964       0.00000000
Si       0.00360009      -2.71413854       2.71464153       0.00000000
Si       2.71476108       0.00058644      -2.71433261       0.00000000
Si      -2.71461447      -2.71460610      -0.00037757       0.00000000
Si      -2.71516833       0.00068418      -2.71419531       0.00000000
Si      -2.71477737       2.71497285      -0.00027459       0.00000000
