10
Lattice="16.28999089631971 0.0 0.0 0.0 16.28999089631971 0.0 0.0 0.0 34.32429715621058" Properties=species:S:1:pos:R:3:initial_magmoms:R:1 pbc="T T T"
Si      -1.43055522       1.25654544       1.33147456       0.00000000
Si       1.34643366       1.35593073      -1.34475807       0.00000000
Si       1.25327115      -1.41835401       1.39984859       0.00000000
Si      -1.36832742      -1.36213722      -1.34774428       0.00000000
Si      -0.69475221      -2.31116004       2.66905884       0.00000000
Si      -2.29100931      -0.38312451       2.82128718       0.00000000
Si      -0.13383864       2.64471408       2.70125505       0.00000000
Si       2.70327663      -0.00192222      -2.70310856       0.00000000
Si      -0.01202202       2.71283886      -2.70369207       0.00000000
Si       2.70961344       2.70692559       0.03511378       0.00000000
