10
Lattice="16.28999089631971 0.0 0.0 0.0 16.28999089631971 0.0 0.0 0.0 34.32429715621058" Properties=species:S:1:pos:R:3:initial_magmoms:R:1 pbc="T T T"
Si       0.22382460      -2.25757964      -0.51393799       0.00000000
Si       0.40825998      -0.31272532       2.31884784       0.00000000
Si      -2.27831940       0.63902412      -0.38014180       0.00000000
Si       1.88656119       1.33034891      -0.68947254       0.00000000
Si       2.52165942      -2.45141435      -0.92648195       0.00000000
Si      -1.81296297      -0.43090811       3.13772305       0.00000000
Si      -2.07339120       2.80881302      -1.14742757       0.00000000
Si       3.51580554       0.84865687       0.92802654       0.00000000
Si      -0.31032450      -3.45461771       1.48064803       0.00000000
Si      -3.15617121       0.99013878       1.81404012       0.00000000
