10
Lattice="16.28999089631971 0.0 0.0 0.0 16.28999089631971 0.0 0.0 0.0 34.32429715621058" Properties=species:S:1:pos:R:3:initial_magmoms:R:1 pbc="T T T"
Si      -1.34643366      -1.35593073       1.34475807       0.00000000
Si       1.35684297      -1.35785295      -1.35835049       0.00000000
Si      -1.35845568       1.35690813      -1.35893401       0.00000000
Si       1.36317978       1.35099486       1.37987184       0.00000000
Si      -2.71357191       2.71630863      -0.00044622       0.00000000
Si       2.71767699      -2.71313208       0.00037757       0.00000000
Si       2.71511946      -0.00053757      -2.71570558       0.00000000
Si      -0.00079821       2.71511946      -2.71584288       0.00000000
Si      -0.00068418      -2.71511946      -2.71594585       0.00000000
Si       2.71669959       2.71469592       0.00425622       0.00000000
