10
Lattice="16.28999089631971 0.0 0.0 0.0 16.28999089631971 0.0 0.0 0.0 34.32429715621058" Properties=species:S:1:pos:R:3:initial_magmoms:R:1 pbc="T T T"
Si       0.59909733      -1.35343836       1.75191311       0.00000000
Si      -1.29671658      -1.38816864      -1.36978049       0.00000000
Si       1.44332658       1.36963062      -1.25702511       0.00000000
Si      -1.38973248       1.38655593       1.43822318       0.00000000
Si       0.28427679       3.04030044       1.85454281       0.00000000
Si       0.62545455      -0.03736926       3.63213051       0.00000000
Si      -2.15717067      -3.02783859       0.12003213       0.00000000
Si      -2.60802900       0.07441272      -2.66919614       0.00000000
Si       0.13383864      -2.64471408      -2.70125505       0.00000000
Si       2.30798349       3.07226142       0.13170240       0.00000000
