10
Lattice="16.28999089631971 0.0 0.0 0.0 16.28999089631971 0.0 0.0 0.0 34.32429715621058" Properties=species:S:1:pos:R:3:initial_magmoms:R:1 pbc="T T T"
Si      -0.59909733       1.35343836      -1.75191311       0.00000000
Si       0.02635722       1.31606910       1.88021740       0.00000000
Si       2.13555384      -0.87915501       0.28928534       0.00000000
Si      -2.93182533      -0.78630201       0.83195278       0.00000000
Si      -2.27678814       1.54579068       1.90922145       0.00000000
Si      -1.98882981       2.73999429      -0.31368993       0.00000000
Si       1.43961246      -2.13490224       2.38032269       0.00000000
Si       0.59010525      -0.21589137       3.51995864       0.00000000
Si      -2.75626800      -1.67440023      -1.63188097       0.00000000
Si      -1.89581391      -0.03473028      -3.12169360       0.00000000
