10
Lattice="16.28999089631971 0.0 0.0 0.0 16.28999089631971 0.0 0.0 0.0 34.32429715621058" Properties=species:S:1:pos:R:3:initial_magmoms:R:1 pbc="T T T"
Si      -1.58941530      -0.91988001      -1.46856587       0.00000000
Si      -0.16700508      -1.85671791       1.46077425       0.00000000
Si      -1.06797240       1.78412967       1.16280486       0.00000000
Si       2.12351553       0.18516843      -1.10246272       0.00000000
Si       1.45200915      -3.13274619       0.45074692       0.00000000
Si       3.16428363      -1.47957183       0.37025640       0.00000000
Si      -3.26748078      -1.32014160       0.16822347       0.00000000
Si      -3.29440815       0.90850959       0.99708707       0.00000000
Si      -2.15316333       0.61208046      -3.10830711       0.00000000
Si       2.22777153       2.56311747      -1.83006957       0.00000000
