10
Lattice="16.28999089631971 0.0 0.0 0.0 16.28999089631971 0.0 0.0 0.0 34.32429715621058" Properties=species:S:1:pos:R:3:initial_magmoms:R:1 pbc="T T T"
Si      -1.81297926       1.19518101      -0.91436546       0.00000000
Si      -0.37048347      -2.25596952      -0.59051554       0.00000000
Si       0.34834536       0.86193648       2.17760328       0.00000000
Si       1.77854220       1.23000903      -0.96997086       0.00000000
Si      -1.25937990       0.31301235      -3.11524063       0.00000000
Si       1.42703658      -3.18707334       0.69712686       0.00000000
Si      -0.56275434      -1.97666118      -2.95532364       0.00000000
Si      -1.68616161       3.31872912       0.13341862       0.00000000
Si      -1.52669880       0.09192447       3.43984569       0.00000000
Si       2.57331501       0.30375963       2.85736204       0.00000000
