10
Lattice="16.28999089631971 0.0 0.0 0.0 16.28999089631971 0.0 0.0 0.0 34.32429715621058" Properties=species:S:1:pos:R:3:initial_magmoms:R:1 pbc="T T T"
Si      -1.35417141      -1.34412048       1.37801833       0.00000000
Si       1.36024758       1.37015190       1.37667968       0.00000000
Si      -1.31085630       1.38857589      -1.44670129       0.00000000
Si       1.35180936      -1.35684297      -1.50141768       0.00000000
Si       0.67653999       2.15241399      -2.75526234       0.00000000
Si       2.30037606       0.26303463      -2.90680420       0.00000000
Si       2.71811682      -2.69793351      -0.00343586       0.00000000
Si      -2.72995965      -2.69814528      -0.00121165       0.00000000
Si      -2.69785206       2.73597066       0.00204916       0.00000000
Si       0.00270414      -2.70495450       2.73856558       0.00000000
