10
Lattice="16.28999089631971 0.0 0.0 0.0 16.28999089631971 0.0 0.0 0.0 34.32429715621058" Properties=species:S:1:pos:R:3:initial_magmoms:R:1 pbc="T T T"
Si       1.22958702      -1.42275231      -1.35365836       0.00000000
Si      -1.34900010      -1.35514881       1.33761174       0.00000000
Si      -1.49386707       1.17442755      -1.36869928       0.00000000
Si       1.36794777       1.36010097       1.33651336       0.00000000
Si       1.93453351       0.57254463      -2.60700768       0.00000000
Si       0.22151458       2.35414935      -2.46753906       0.00000000
Si      -2.19596607      -0.77906925      -2.63333855       0.00000000
Si      -0.37309878      -2.49095277      -2.74802677       0.00000000
Si      -2.70566388      -0.00123804       2.69386845       0.00000000
Si       0.00873096      -2.71394658       2.69331927       0.00000000
