10
Lattice="16.28999089631971 0.0 0.0 0.0 16.28999089631971 0.0 0.0 0.0 34.32429715621058" Properties=species:S:1:pos:R:3:initial_magmoms:R:1 pbc="T T T"
Si       1.81985364       0.92036871       1.15388054       0.00000000
Si      -1.35350352       1.32524037      -1.40836102       0.00000000
Si       1.34812782      -1.39805667      -1.40389886       0.00000000
Si      -1.50418602      -0.99212616       1.62100016       0.00000000
Si       0.90026685       1.11757545       3.30416166       0.00000000
Si       1.51883073      -1.13122647       3.12862711       0.00000000
Si      -2.67317271      -2.63678085       0.11484916       0.00000000
Si      -2.89492848       2.51861319      -0.07582241       0.00000000
Si      -0.00257382       2.68485264      -2.77062449       0.00000000
Si       2.67788052      -2.80189629       0.01705919       0.00000000
