10
Lattice="16.28999089631971 0.0 0.0 0.0 16.28999089631971 0.0 0.0 0.0 34.32429715621058" Properties=species:S:1:pos:R:3:initial_magmoms:R:1 pbc="T T T"
Si      -1.81985364      -0.92036871      -1.15388054       0.00000000
Si      -0.91958679       0.19720674       2.15028112       0.00000000
Si       1.02646548       1.81959300      -1.08773758       0.00000000
Si       1.72268379      -2.01963420       0.25190616       0.00000000
Si      -0.30102291      -2.05159518       1.97474657       0.00000000
Si       2.24916030       0.41388003      -2.56701265       0.00000000
Si      -0.47172582      -2.31842538      -2.55777940       0.00000000
Si       3.51572409      -0.94780107      -1.13630649       0.00000000
Si      -3.32403966      -1.91249487       0.46711962       0.00000000
Si       2.85436638       2.64334572       0.37664072       0.00000000
