10
Lattice="16.28999089631971 0.0 0.0 0.0 16.28999089631971 0.0 0.0 0.0 34.32429715621058" Properties=species:S:1:pos:R:3:initial_magmoms:R:1 pbc="T T T"
Si       0.29131407       1.87748766      -1.41896724       0.00000000
Si       0.71964333      -1.47650931      -1.73533446       0.00000000
Si       1.57706748      -0.30330351       1.77003634       0.00000000
Si      -2.34712836      -0.33793605       0.49258826       0.00000000
Si      -0.33018201      -0.63109089      -3.60964808       0.00000000
Si       1.09618668      -2.53671138       2.43905159       0.00000000
Si      -2.52364680      -2.66857893       0.46210827       0.00000000
Si      -0.94874589       1.61771103      -3.43411353       0.00000000
Si       3.83823351      -0.04209336       1.04260111       0.00000000
Si      -0.38900520       3.94392303      -0.50360637       0.00000000
