10
Lattice="16.28999089631971 0.0 0.0 0.0 16.28999089631971 0.0 0.0 0.0 34.32429715621058" Properties=species:S:1:pos:R:3:initial_magmoms:R:1 pbc="T T T"
Si      -1.44239805       1.30588785       1.33295050       0.00000000
Si       1.34394129       1.36729557      -1.37626779       0.00000000
Si      -1.37637468      -1.34827443      -1.37365914       0.00000000
Si       1.47251826      -1.29316536       1.46310831       0.00000000
Si       2.69009802       2.69944589       0.00528594       0.00000000
Si       2.69521308      -2.69887833      -0.01616675       0.00000000
Si       2.69703756       0.00832419      -2.73321099       0.00000000
Si      -2.72730438      -2.70788670      -0.01139567       0.00000000
Si      -0.01716966      -2.70806589      -2.73321099       0.00000000
Si      -0.01803303       2.72390370      -2.73365720       0.00000000
