10
Lattice="16.28999089631971 0.0 0.0 0.0 16.28999089631971 0.0 0.0 0.0 34.32429715621058" Properties=species:S:1:pos:R:3:initial_magmoms:R:1 pbc="T T T"
Si      -1.46531808      -0.97842627      -1.53113910       0.00000000
Si      -0.61582716      -0.77548545       2.12882842       0.00000000
Si       2.30596353      -0.32110848      -0.34138965       0.00000000
Si      -0.74673360       2.16346612      -0.69293930       0.00000000
Si       0.20698074      -3.19380111       1.65309340       0.00000000
Si      -2.96795655       2.04528333       0.12593592       0.00000000
Si      -3.55990257      -0.22718034      -0.74250361       0.00000000
Si      -0.93116898       0.21861180      -3.52572513       0.00000000
Si       0.57710583       0.99689913       3.46761406       0.00000000
Si       1.08185148       3.50223827      -0.10887673       0.00000000
