10
Lattice="16.28999089631971 0.0 0.0 0.0 16.28999089631971 0.0 0.0 0.0 34.32429715621058" Properties=species:S:1:pos:R:3:initial_magmoms:R:1 pbc="T T T"
Si       0.81199134       1.87934472       1.13887979       0.00000000
Si       1.68019947      -1.66698502      -0.15701556       0.00000000
Si       0.79377912       0.31684050      -2.25711800       0.00000000
Si      -2.01135888      -0.85581144       1.02537270       0.00000000
Si      -0.59618142      -2.14649893       2.49373607       0.00000000
Si       2.16767772       0.56159775       2.48513096       0.00000000
Si       0.78545493      -3.44635217       1.14453643       0.00000000
Si       3.54952977      -0.69149747       0.98914682       0.00000000
Si       1.76099787       3.49816347      -0.23709766       0.00000000
Si       0.20540061      -1.59945483      -3.63417525       0.00000000
