10
Lattice="16.28999089631971 0.0 0.0 0.0 16.28999089631971 0.0 0.0 0.0 34.32429715621058" Properties=species:S:1:pos:R:3:initial_magmoms:R:1 pbc="T T T"
Si      -1.35676152       1.35720636      -1.35738941       0.00000000
Si       1.35742941      -1.35752443      -1.35718347       0.00000000
Si       1.35705474       1.35809743       1.35790428       0.00000000
Si      -1.35832536      -1.35799684       1.35752671       0.00000000
Si      -2.71142163       0.00097454       2.71446991       0.00000000
Si      -0.00193851      -2.71278727      -2.71354315       0.00000000
Si      -2.71445157      -0.00201744      -2.71484748       0.00000000
Si      -2.71448415      -2.71514932       0.00010297       0.00000000
Si       2.71456560      -0.00154483      -2.71512207       0.00000000
Si       2.71477005       2.71529226      -0.00030892       0.00000000
