10
Lattice="16.28999089631971 0.0 0.0 0.0 16.28999089631971 0.0 0.0 0.0 34.32429715621058" Properties=species:S:1:pos:R:3:initial_magmoms:R:1 pbc="T T T"
Si      -1.35397593       1.35791811      -1.35577617       0.00000000
Si      -1.35650088      -1.35849315       1.35711482       0.00000000
Si       1.35798327       1.35681039       1.35752671       0.00000000
Si       1.35628911      -1.35835142      -1.36099347       0.00000000
Si      -0.02399517      -2.70723331      -2.71085556       0.00000000
Si      -0.01068624       2.70246213      -2.72556353       0.00000000
Si       0.00104256       2.71399545       2.71457288       0.00000000
Si      -2.71428867       2.71476108      -0.00034324       0.00000000
Si      -2.71476108      -0.00058644       2.71433261       0.00000000
Si       2.71503069      -0.00040725       2.71419531       0.00000000
