10
Lattice="16.28999089631971 0.0 0.0 0.0 16.28999089631971 0.0 0.0 0.0 34.32429715621058" Properties=species:S:1:pos:R:3:initial_magmoms:R:1 pbc="T T T"
Si       1.35676152      -1.35720636       1.35738941       0.00000000
Si       1.35650088       1.35849315      -1.35711482       0.00000000
Si      -1.35826020       1.35790671       1.35721779       0.00000000
Si      -1.35769005      -1.35922380      -1.35745806       0.00000000
Si       0.00143352      -2.71722317      -2.71072856       0.00000000
Si       2.71419093      -2.71473080       0.00020595       0.00000000
Si       2.71381626       0.00089106       2.71529369       0.00000000
Si       0.00252495       2.71641126      -2.71289099       0.00000000
Si       2.71448415       2.71530354       0.00041189       0.00000000
Si      -0.00073305       2.71517322       2.71481315       0.00000000
