10
Lattice="16.28999089631971 0.0 0.0 0.0 16.28999089631971 0.0 0.0 0.0 34.32429715621058" Properties=species:S:1:pos:R:3:initial_magmoms:R:1 pbc="T T T"
Si      -1.35371529       1.35900302       1.35824752       0.00000000
Si      -1.35705474      -1.35809743      -1.35790428       0.00000000
Si       1.35771531       1.35719483      -1.35821320       0.00000000
Si       1.35715248      -1.35979102       1.35838482       0.00000000
Si      -0.00944820       2.71563422       2.69868072       0.00000000
Si      -2.71454931       2.71428215      -0.00048054       0.00000000
Si      -2.71381626      -0.00089106      -2.71529369       0.00000000
Si       0.00066789       2.71441247      -2.71488180       0.00000000
Si       2.71394725       2.71550390      -0.00102973       0.00000000
Si       2.71570494      -0.00035675      -2.71474450       0.00000000
