10
Lattice="16.28999089631971 0.0 0.0 0.0 16.28999089631971 0.0 0.0 0.0 34.32429715621058" Properties=species:S:1:pos:R:3:initial_magmoms:R:1 pbc="T T T"
Si       1.71286092       0.86644881      -1.37654238       0.00000000
Si      -0.88997157      -1.92340007      -1.25187647       0.00000000
Si      -1.93932450       1.54869030      -0.06442674       0.00000000
Si       1.49493330       0.07698654       2.00632494       0.00000000
Si       0.42406128       2.19032082      -2.78284395       0.00000000
Si      -2.28881016      -0.55028597      -2.74340531       0.00000000
Si       1.99867290      -2.18379572       2.25129758       0.00000000
Si       2.68789302       2.63401155      -0.03827161       0.00000000
Si      -0.98473050       3.38618601      -1.34221807       0.00000000
Si      -2.38350393       2.60301168       1.96355684       0.00000000
