10
Lattice="16.28999089631971 0.0 0.0 0.0 16.28999089631971 0.0 0.0 0.0 34.32429715621058" Properties=species:S:1:pos:R:3:initial_magmoms:R:1 pbc="T T T"
Si      -1.35746199      -1.35646830      -1.35635968       0.00000000
Si       1.35725022      -1.35544203       1.35773266       0.00000000
Si       1.35756331       1.35835794      -1.35656563       0.00000000
Si      -1.35588186       1.35876519       1.36360212       0.00000000
Si      -0.01063737      -2.71243161       2.70015667       0.00000000
Si       2.71275808      -2.71256193       0.00044622       0.00000000
Si      -0.00052128      -2.71365336      -2.71340586       0.00000000
Si       2.71396354       0.00164529      -2.71316558       0.00000000
Si      -2.71559187       0.00140094      -2.71344018       0.00000000
Si      -2.71573848      -2.71378368       0.00099541       0.00000000
