10
Lattice="16.28999089631971 0.0 0.0 0.0 16.28999089631971 0.0 0.0 0.0 34.32429715621058" Properties=species:S:1:pos:R:3:initial_magmoms:R:1 pbc="T T T"
Si       0.18541278      -0.67913010      -2.21326624       0.00000000
Si      -1.62606780      -0.83812050       1.43674723       0.00000000
Si      -0.88172883       2.12762061      -0.34001668       0.00000000
Si       2.11450946       0.46211472       1.09498002       0.00000000
Si       2.00761448       0.82652202      -2.27621704       0.00000000
Si       0.78472157       2.79207342      -1.84747200       0.00000000
Si      -2.17908072       1.38552966       2.41636322       0.00000000
Si      -0.52274610       3.06750474       1.77878905       0.00000000
Si       1.72595875       2.45697183       2.43239268       0.00000000
Si       3.72522068       0.95664654      -0.64413012       0.00000000
