10
Lattice="16.28999089631971 0.0 0.0 0.0 16.28999089631971 0.0 0.0 0.0 34.32429715621058" Properties=species:S:1:pos:R:3:initial_magmoms:R:1 pbc="T T T"
Si      -1.84376736      -1.35521397      -0.51658096       0.00000000
Si      -0.83709423       2.19849840       0.23313076       0.00000000
Si       1.61228646      -0.13352913      -1.72383582       0.00000000
Si       1.58291559      -0.64596366       1.68161691       0.00000000
Si       2.17513237      -2.78793576       0.99739598       0.00000000
Si       2.51159124       2.04519321      -1.76835445       0.00000000
Si       2.91540405      -2.03339925      -1.15164946       0.00000000
Si       1.07983152       3.60163755       0.11769808       0.00000000
Si      -1.57635072       2.34494550       2.48391348       0.00000000
Si      -2.26971828      -1.22388399      -2.81720259       0.00000000
