10
Lattice="16.28999089631971 0.0 0.0 0.0 16.28999089631971 0.0 0.0 0.0 34.32429715621058" Properties=species:S:1:pos:R:3:initial_magmoms:R:1 pbc="T T T"
Si       0.60491286       0.50958378       2.19134368       0.00000000
Si      -2.22496965       0.55817685      -0.67975876       0.00000000
Si       1.65633462       1.68197508      -0.63757418       0.00000000
Si       0.55301292      -2.22365016      -0.97961599       0.00000000
Si       1.29735189       0.74209095      -2.75637990       0.00000000
Si       2.42778015      -1.20229974       2.07665546       0.00000000
Si       2.17908072      -1.38552966      -2.41636322       0.00000000
Si      -2.65657320      -1.54077336       1.88169335       0.00000000
Si      -1.33288038      -0.15750801       3.35983712       0.00000000
Si      -2.57331501      -0.30375963      -2.85736204       0.00000000
