10
Lattice="16.28999089631971 0.0 0.0 0.0 16.28999089631971 0.0 0.0 0.0 34.32429715621058" Properties=species:S:1:pos:R:3:initial_magmoms:R:1 pbc="T T T"
Si       1.21578786       2.13814395      -0.43313855       0.00000000
Si      -2.31806700      -0.18873594       1.10695920       0.00000000
Si       1.35422028      -0.46995021       2.28847082       0.00000000
Si      -1.34418564       0.68864346      -2.49019483       0.00000000
Si       0.94485258      -2.93076648      -0.69493011       0.00000000
Si      -3.36789234       0.65668248      -0.76735442       0.00000000
Si      -0.47530962       3.57860349       0.64821471       0.00000000
Si       3.54847418       0.14369409       1.63658340       0.00000000
Si      -3.02671458      -2.42098722       1.01023328       0.00000000
Si       0.80052318       1.24568001       3.88489477       0.00000000
