10
Lattice="16.28999089631971 0.0 0.0 0.0 16.28999089631971 0.0 0.0 0.0 34.32429715621058" Properties=species:S:1:pos:R:3:initial_magmoms:R:1 pbc="T T T"
Si       2.25397629       0.06462243      -0.55430338       0.00000000
Si      -1.18354995      -0.96787035      -1.76451013       0.00000000
Si      -0.77719590       2.22149988      -0.11618781       0.00000000
Si      -0.57546054      -0.92950740       2.13902275       0.00000000
Si      -2.90944287      -1.57262031      -0.34612641       0.00000000
Si      -2.87617869      -0.65119275       1.87829524       0.00000000
Si       0.47742732       3.25184238       1.56769450       0.00000000
Si       2.17764135       0.78558525      -2.82307205       0.00000000
Si       3.05982305      -2.11685292      -0.32663019       0.00000000
Si       0.88736517       0.06535548       3.63985348       0.00000000
