10
Lattice="16.28999089631971 0.0 0.0 0.0 16.28999089631971 0.0 0.0 0.0 34.32429715621058" Properties=species:S:1:pos:R:3:initial_magmoms:R:1 pbc="T T T"
Si      -1.79502768      -1.25288019       0.76635901       0.00000000
Si       2.30071815      -0.27831465       0.26072751       0.00000000
Si      -0.03326418      -0.92142756      -2.22442164       0.00000000
Si      -0.82280790       2.41831566       0.47573502       0.00000000
Si       2.87617869       0.65119275      -1.87829524       0.00000000
Si      -3.09066912      -1.17107181      -1.35570752       0.00000000
Si      -0.20698074       3.19380111      -1.65309340       0.00000000
Si      -1.98817821      -0.10482615      -3.16408413       0.00000000
Si      -1.86843042       0.07082892       3.24134816       0.00000000
Si      -1.05616215      -3.62786445       0.68847714       0.00000000
