10
Lattice="16.28999089631971 0.0 0.0 0.0 16.28999089631971 0.0 0.0 0.0 34.32429715621058" Properties=species:S:1:pos:R:3:initial_magmoms:R:1 pbc="T T T"
Si      -0.52442397       2.22575157      -0.46993421       0.00000000
Si      -0.35898273      -0.93988413      -2.11880572       0.00000000
Si       2.24870485      -0.61053291       0.65360363       0.00000000
Si      -1.65633462      -1.68197508       0.63757418       0.00000000
Si      -1.05142176      -1.17239130       2.82891786       0.00000000
Si       0.93840174       3.22061445       1.03089652       0.00000000
Si       0.52274610      -3.06750474      -1.77878905       0.00000000
Si       2.63725556      -2.60539002      -0.68380903       0.00000000
Si       1.36605889       1.96082730       2.99471735       0.00000000
Si       3.70436948       0.81979425      -0.57661419       0.00000000
