10
Lattice="16.28999089631971 0.0 0.0 0.0 16.28999089631971 0.0 0.0 0.0 34.32429715621058" Properties=species:S:1:pos:R:3:initial_magmoms:R:1 pbc="T T T"
Si       1.23175206       0.70374429       1.84922254       0.00000000
Si      -2.20996656       0.55429983       0.56865095       0.00000000
Si       0.73674783       1.53754794      -1.64056502       0.00000000
Si       0.78094260      -2.02150755      -1.07414516       0.00000000
Si      -3.18915846      -0.12118131      -1.46159804       0.00000000
Si      -0.23775255      -1.77427422      -3.15207062       0.00000000
Si       2.99934738      -1.37922543      -1.55262613       0.00000000
Si       3.02386383       0.97544520      -1.89803172       0.00000000
Si      -2.71787247      -0.83761551       2.47087024       0.00000000
Si      -0.38817441       0.54084429      -3.73719724       0.00000000
