10
Lattice="16.28999089631971 0.0 0.0 0.0 16.28999089631971 0.0 0.0 0.0 34.32429715621058" Properties=species:S:1:pos:R:3:initial_magmoms:R:1 pbc="T T T"
Si      -1.01869515       0.24723333      -2.07792546       0.00000000
Si       2.21840478       0.64228212      -0.47848097       0.00000000
Si       0.25713765      -2.08569015       1.15875460       0.00000000
Si      -0.78094260       2.02150755       1.07414516       0.00000000
Si       0.67240233      -1.19322621      -3.15927872       0.00000000
Si      -3.28978179      -0.16610913      -1.30281375       0.00000000
Si       3.15244473       0.27310185       1.61650368       0.00000000
Si      -0.04419477       3.55905549      -0.56641987       0.00000000
Si      -2.00402838      -2.34690030       1.88618983       0.00000000
Si       2.97931135      -0.94144797      -2.07916114       0.00000000
