10
Lattice="16.28999089631971 0.0 0.0 0.0 16.28999089631971 0.0 0.0 0.0 34.32429715621058" Properties=species:S:1:pos:R:3:initial_magmoms:R:1 pbc="T T T"
Si       0.06986781      -2.32142274      -0.05399215       0.00000000
Si       1.34905635       0.95102649       1.65988961       0.00000000
Si      -2.29783482       0.19383471       0.41254396       0.00000000
Si       0.55573335       0.89920800      -2.09865735       0.00000000
Si      -2.52165942       2.45141435       0.92648195       0.00000000
Si      -2.09292291      -2.70827766      -1.25699079       0.00000000
Si       0.60173631       3.22937751      -1.70660501       0.00000000
Si       0.93929769      -0.34588557       3.59687943       0.00000000
Si      -3.39389118      -0.64215180      -1.47700966       0.00000000
Si       3.57162390       0.58145526       1.11392704       0.00000000
