10
Lattice="16.28999089631971 0.0 0.0 0.0 16.28999089631971 0.0 0.0 0.0 34.32429715621058" Properties=species:S:1:pos:R:3:initial_magmoms:R:1 pbc="T T T"
Si      -1.31261562       1.90099643       0.35841451       0.00000000
Si      -1.25462322      -1.03034250      -1.68388231       0.00000000
Si       2.33384291       0.09005112      -0.44858449       0.00000000
Si      -0.12890277      -0.87250869       2.22514246       0.00000000
Si      -0.47742732      -3.25184238      -1.56769450       0.00000000
Si      -2.98348092       0.28766511       2.12512140       0.00000000
Si      -0.84486456       0.26656956      -3.62087213       0.00000000
Si       3.02672177      -2.13175827      -0.43904233       0.00000000
Si       0.40993785      -3.18648690       2.07215898       0.00000000
Si      -3.56058675      -0.70923402      -1.34249266       0.00000000
