10
Lattice="16.28999089631971 0.0 0.0 0.0 16.28999089631971 0.0 0.0 0.0 34.32429715621058" Properties=species:S:1:pos:R:3:initial_magmoms:R:1 pbc="T T T"
Si      -1.28502036       1.33648047       1.49087325       0.00000000
Si       1.10490183       1.68493986      -1.28471595       0.00000000
Si       1.40688585      -1.36977723       1.46706933       0.00000000
Si      -2.08011897      -0.80426988      -1.09396093       0.00000000
Si       2.27120067       0.28413018      -2.92188287       0.00000000
Si      -0.78703506       3.34968012      -1.42469051       0.00000000
Si      -2.58719083       2.69791722       0.09714125       0.00000000
Si       2.80966662      -2.63290383       0.03408748       0.00000000
Si      -2.64670472      -0.01671354       2.84956012       0.00000000
Si       2.82598920       2.71694394       0.02157970       0.00000000
