10
Lattice="16.28999089631971 0.0 0.0 0.0 16.28999089631971 0.0 0.0 0.0 34.32429715621058" Properties=species:S:1:pos:R:3:initial_magmoms:R:1 pbc="T T T"
Si      -0.76090657       1.58373009       1.60068017       0.00000000
Si       0.02577730      -2.24622810       0.98960436       0.00000000
Si       2.38974952       0.22263543      -0.67412957       0.00000000
Si      -2.30690902      -0.25177824      -1.08011759       0.00000000
Si      -2.97931135       0.94144797       2.07916114       0.00000000
Si       0.17313338       1.21454982       3.69566482       0.00000000
Si       1.22655718      -3.66376761      -0.56363960       0.00000000
Si      -2.10631396       1.01323800      -3.13216251       0.00000000
Si       0.98902780      -2.15849016       3.15138413       0.00000000
Si      -2.16847660      -2.85987240       1.64149178       0.00000000
