10
Lattice="16.28999089631971 0.0 0.0 0.0 16.28999089631971 0.0 0.0 0.0 34.32429715621058" Properties=species:S:1:pos:R:3:initial_magmoms:R:1 pbc="T T T"
Si      -1.80339194      -1.31383737      -0.69067389       0.00000000
Si      -0.80584675       2.18147535      -0.22767319       0.00000000
Si       1.48696749      -0.74929113      -1.78150067       0.00000000
Si       0.59350986      -0.21861180       2.35897296       0.00000000
Si       2.86207155      -1.36480878       0.13039808       0.00000000
Si       1.13710716      -3.14926425       0.51266799       0.00000000
Si      -0.58049904      -3.27938877      -1.11941893       0.00000000
Si       0.44432604       3.23693703       1.45528236       0.00000000
Si       3.59769537       0.96697440       0.20450428       0.00000000
Si      -3.05982305       2.11685292       0.32663019       0.00000000
