10
Lattice="16.28999089631971 0.0 0.0 0.0 16.28999089631971 0.0 0.0 0.0 34.32429715621058" Properties=species:S:1:pos:R:3:initial_magmoms:R:1 pbc="T T T"
Si       1.43123940      -1.25641512       1.45108107       0.00000000
Si      -1.31084001       1.44047583       1.44264072       0.00000000
Si       0.74518605       1.91281971      -1.29133368       0.00000000
Si      -0.79478910      -1.97107371      -1.44393959       0.00000000
Si      -2.59494487      -2.62283661       0.07789217       0.00000000
Si       2.56834656       2.76115241       0.06814750       0.00000000
Si       2.81823516      -2.60380989       0.00233062       0.00000000
Si       0.05815530      -2.62552446       2.82910969       0.00000000
Si      -2.65532539       0.09410733       2.83044834       0.00000000
Si      -2.60697341       2.91180885      -0.02798462       0.00000000
