10
Lattice="16.28999089631971 0.0 0.0 0.0 16.28999089631971 0.0 0.0 0.0 34.32429715621058" Properties=species:S:1:pos:R:3:initial_magmoms:R:1 pbc="T T T"
Si       1.35020986       1.35094599       1.37556757       0.00000000
Si      -1.36243419      -1.36902789       1.36904595       0.00000000
Si      -1.36551300       1.41379281      -1.32747577       0.00000000
Si       1.41059038      -1.36599795      -1.37698860       0.00000000
Si       2.69469524       2.69731449      -0.01224005       0.00000000
Si      -0.00832794       2.70363501       2.73196158       0.00000000
Si       2.70758063      -0.00977400       2.73113780       0.00000000
Si       2.71276085      -2.72743470       0.01674340       0.00000000
Si      -0.00632881      -2.72616408       2.73189293       0.00000000
Si      -2.72483205      -0.00760743       2.73354050       0.00000000
