10
Lattice="16.28999089631971 0.0 0.0 0.0 16.28999089631971 0.0 0.0 0.0 34.32429715621058" Properties=species:S:1:pos:R:3:initial_magmoms:R:1 pbc="T T T"
Si      -1.17182115       1.69707591      -1.03323057       0.00000000
Si       0.13282866       0.32936751       2.35042621       0.00000000
Si       2.17489419       0.20294082      -0.99324274       0.00000000
Si      -0.99004104      -2.16477810      -0.35553127       0.00000000
Si      -0.20380419      -1.49529168      -2.78366773       0.00000000
Si       0.73570527       3.21139661      -0.73574172       0.00000000
Si      -1.69046217       0.48641940      -3.04322821       0.00000000
Si       2.83312422       2.27923164       0.16461942       0.00000000
Si       0.34679781      -3.41386272       1.27363808       0.00000000
Si       2.30479065      -0.49075254       2.83536015       0.00000000
