10
Lattice="16.28999089631971 0.0 0.0 0.0 16.28999089631971 0.0 0.0 0.0 34.24959146834617" Properties=species:S:1:pos:R:3:initial_magmoms:R:1 pbc="T T T"
Si       2.03392053       0.82813473      -0.65293458       0.00000000
Si       0.65067147      -1.71289350       1.45310823       0.00000000
Si      -0.95957874       1.91035992       0.97929912       0.00000000
Si      -0.74093436      -0.66016854      -2.15169754       0.00000000
Si      -2.75165141      -1.55628144      -1.36190152       0.00000000
Si       2.49033375      -2.60626968       0.07206118       0.00000000
Si       1.47968586       2.35820786      -2.33414521       0.00000000
Si       3.16037403      -0.97500537      -1.60212829       0.00000000
Si      -0.33704010       1.29981168      -3.46040941       0.00000000
Si      -1.16219376      -3.26699208       1.49684498       0.00000000
