10
Lattice="16.28999089631971 0.0 0.0 0.0 16.28999089631971 0.0 0.0 0.0 34.24959146834617" Properties=species:S:1:pos:R:3:initial_magmoms:R:1 pbc="T T T"
Si      -0.00882755      -0.39006405       2.26862571       0.00000000
Si       2.27995166       0.30225999      -0.40205618       0.00000000
Si      -0.55462956      -2.11618503      -0.82510737       0.00000000
Si      -1.50449946       1.79122301      -0.25841331       0.00000000
Si       2.16911450       2.27291831      -1.61216342       0.00000000
Si      -2.91897645      -1.89890901      -0.76373207       0.00000000
Si      -0.39889716       3.65235551       0.62872010       0.00000000
Si       0.28377994       2.08700054      -3.09260284       0.00000000
Si       2.16614972      -0.13711293       3.16004032       0.00000000
Si       3.23953040      -1.60809993      -1.38135530       0.00000000
