10
Lattice="16.28999089631971 0.0 0.0 0.0 16.28999089631971 0.0 0.0 0.0 34.24959146834617" Properties=species:S:1:pos:R:3:initial_magmoms:R:1 pbc="T T T"
Si      -1.35637056      -1.35777568       1.35649008       0.00000000
Si       1.35843939       1.35727767       1.35666133       0.00000000
Si      -1.35609363       1.35635728      -1.36142202       0.00000000
Si       1.35879777      -1.35888340      -1.36590872       0.00000000
Si      -2.69848737      -0.00300154      -2.71861422       0.00000000
Si      -2.71344159      -0.00098347       2.71387065       0.00000000
Si      -2.71298547       2.71508989       0.00006850       0.00000000
Si       0.00146610       2.71412878       2.71400764       0.00000000
Si       0.00123804      -2.71473268       2.71452139       0.00000000
Si       2.71590138      -0.00046772       2.71414464       0.00000000
