10
Lattice="16.28999089631971 0.0 0.0 0.0 16.28999089631971 0.0 0.0 0.0 34.24959146834617" Properties=species:S:1:pos:R:3:initial_magmoms:R:1 pbc="T T T"
Si       1.35697329      -1.35685112      -1.35734632       0.00000000
Si       1.35725022       1.35752715       1.35755182       0.00000000
Si      -1.35731538       1.35757602      -1.35820256       0.00000000
Si      -1.35824391      -1.35801259       1.35768881       0.00000000
Si      -0.00146610      -2.71412878      -2.71400764       0.00000000
Si      -2.71445157       0.00096111      -2.71393914       0.00000000
Si       2.71443528      -2.71459650       0.00013700       0.00000000
Si      -2.71490769      -2.71511225      -0.00013700       0.00000000
Si       2.71500543       2.71516833      -0.00010275       0.00000000
Si       2.71666701       0.00058644      -2.71493238       0.00000000
