10
Lattice="16.28999089631971 0.0 0.0 0.0 16.28999089631971 0.0 0.0 0.0 34.24959146834617" Properties=species:S:1:pos:R:3:initial_magmoms:R:1 pbc="T T T"
Si       1.07582418       1.55659095      -1.52071696       0.00000000
Si      -1.57876164      -1.11146670      -1.47581572       0.00000000
Si      -1.05464718       1.26063423       2.05004469       0.00000000
Si       1.89387540      -1.96462287       0.00698692       0.00000000
Si      -2.39888169      -2.86404101      -0.04469574       0.00000000
Si       2.43076122       0.18485892      -2.90837418       0.00000000
Si       2.54265723       2.82758562      -0.06582775       0.00000000
Si      -0.29608704      -2.52587690      -2.91888881       0.00000000
Si       0.01350441      -1.68886575       3.51668152       0.00000000
Si      -2.30298246      -2.02800726       2.42740690       0.00000000
