10
Lattice="16.28999089631971 0.0 0.0 0.0 16.28999089631971 0.0 0.0 0.0 34.24959146834617" Properties=species:S:1:pos:R:3:initial_magmoms:R:1 pbc="T T T"
Si      -0.36378828      -2.22856064       0.89316135       0.00000000
Si      -1.51917282       1.39256694       1.33426208       0.00000000
Si      -1.74814506      -1.66162235      -0.87165259       0.00000000
Si       2.31648687       0.33914151       1.08927462       0.00000000
Si      -0.09589923      -0.83603375      -2.47210264       0.00000000
Si      -3.04463358       0.24775461      -1.08119171       0.00000000
Si      -1.15401618       3.29626521       0.07421891       0.00000000
Si       1.24833528       3.28864149      -0.37736221       0.00000000
Si       1.74777039      -3.12286535       1.41855037       0.00000000
Si       2.29716693      -1.18943878       2.85367756       0.00000000
