10
Lattice="16.28999089631971 0.0 0.0 0.0 16.28999089631971 0.0 0.0 0.0 34.24959146834617" Properties=species:S:1:pos:R:3:initial_magmoms:R:1 pbc="T T T"
Si       0.50399631      -2.02348353      -1.02063840       0.00000000
Si      -2.04610545      -0.50067315       1.08269869       0.00000000
Si      -1.14940611       1.40699988      -1.57109814       0.00000000
Si       2.01696264       0.56065293       1.39841160       0.00000000
Si       0.13193271       3.21084045      -0.77017099       0.00000000
Si       0.21830229       3.34622664       1.64586504       0.00000000
Si       1.05823098      -3.55355666       0.66057224       0.00000000
Si       1.03509918       1.69732026       3.22655307       0.00000000
Si      -2.39876766       1.18421784       2.70280802       0.00000000
Si      -1.93526829      -2.47133146       2.29280593       0.00000000
