10
Lattice="16.28999089631971 0.0 0.0 0.0 16.28999089631971 0.0 0.0 0.0 34.24959146834617" Properties=species:S:1:pos:R:3:initial_magmoms:R:1 pbc="T T T"
Si      -1.35749457      -1.35536058      -1.35638733       0.00000000
Si       1.35910728       1.35718506      -1.35686682       0.00000000
Si       1.35765747      -1.35785295       1.35765456       0.00000000
Si      -1.35791811       1.35769005       1.35779156       0.00000000
Si       2.71345788      -0.00003258      -2.71246641       0.00000000
Si      -2.71298547      -0.00586440      -2.71448714       0.00000000
Si       2.71440270      -2.71451673       0.00037675       0.00000000
Si       2.71466334       2.71466334       0.00010275       0.00000000
Si      -2.71479366       2.71466334       0.00065074       0.00000000
Si      -2.71466334      -2.71544526      -0.00044524       0.00000000
