10
Lattice="16.28999089631971 0.0 0.0 0.0 16.28999089631971 0.0 0.0 0.0 34.24959146834617" Properties=species:S:1:pos:R:3:initial_magmoms:R:1 pbc="T T T"
Si      -1.35839052       1.35668007      -1.36166177       0.00000000
Si       1.35687555      -1.35861858      -1.36149052       0.00000000
Si       1.33775109       1.36746405       1.37991681       0.00000000
Si      -1.36391283      -1.35006633       1.38645849       0.00000000
Si       2.71331127       2.71554300      -0.00006850       0.00000000
Si      -2.71484253       2.71441899      -0.00160973       0.00000000
Si      -0.00094482       2.71456560      -2.71900809       0.00000000
Si       2.71463076      -0.00097740      -2.71914509       0.00000000
Si      -2.71902906      -2.71523349      -0.00130149       0.00000000
Si      -0.00037467      -2.71614573      -2.71904234       0.00000000
