10
Lattice="16.28999089631971 0.0 0.0 0.0 16.28999089631971 0.0 0.0 0.0 34.24959146834617" Properties=species:S:1:pos:R:3:initial_magmoms:R:1 pbc="T T T"
Si      -1.35646830      -1.35666378      -1.35762031       0.00000000
Si       1.35687555      -1.35697329       1.35714082       0.00000000
Si       1.35628911       1.35798327      -1.35696957       0.00000000
Si      -1.35806472       1.35777150       1.35731207       0.00000000
Si      -0.00057015      -2.71485882       2.71448714       0.00000000
Si       2.71427238       2.71516833      -0.00058224       0.00000000
Si       2.71479366      -2.71466334      -0.00065074       0.00000000
Si       2.71467963       0.00071676       2.71479538       0.00000000
Si       0.00050499       2.71526607       2.71455564       0.00000000
Si      -2.71485230      -2.71502172      -0.00030825       0.00000000
