10
Lattice="16.28999089631971 0.0 0.0 0.0 16.28999089631971 0.0 0.0 0.0 34.24959146834617" Properties=species:S:1:pos:R:3:initial_magmoms:R:1 pbc="T T T"
Si      -1.07153991      -1.65750750      -1.34716189       0.00000000
Si      -1.32988302       1.29652110       1.54786320       0.00000000
Si       0.81671544       1.94763240      -1.29578748       0.00000000
Si       1.40866146      -1.39387014       1.52885124       0.00000000
Si       0.88407459      -3.29980014      -1.46275433       0.00000000
Si      -2.74595643       2.62651815       0.14625269       0.00000000
Si      -2.64179817      -2.73414618       0.23227058       0.00000000
Si       2.90734146       2.67548589      -0.06062181       0.00000000
Si       0.03873762       2.66615172       2.92333441       0.00000000
Si       2.80096776      -2.80803762      -0.01014131       0.00000000
