10
Lattice="16.28999089631971 0.0 0.0 0.0 16.28999089631971 0.0 0.0 0.0 34.24959146834617" Properties=species:S:1:pos:R:3:initial_magmoms:R:1 pbc="T T T"
Si       1.35803214       1.35664749      -1.35642158       0.00000000
Si      -1.35798327      -1.35718506      -1.35638733       0.00000000
Si       1.35746199      -1.35718506       1.35762031       0.00000000
Si      -1.35705474       1.35827649       1.35820256       0.00000000
Si      -2.71371852       0.00120546      -2.71417889       0.00000000
Si      -2.71376739       0.00009774       2.71513788       0.00000000
Si      -2.71427238      -2.71516833       0.00058224       0.00000000
Si       0.00040725      -2.71445157       2.71537763       0.00000000
Si      -2.71466334       2.71523349       0.00017125       0.00000000
Si       2.71518462      -2.71516833       0.00003425       0.00000000
