10
Lattice="16.28999089631971 0.0 0.0 0.0 16.28999089631971 0.0 0.0 0.0 34.24959146834617" Properties=species:S:1:pos:R:3:initial_magmoms:R:1 pbc="T T T"
Si      -1.35653346       1.35302217       1.35816831       0.00000000
Si       1.35669636       1.35571154      -1.35679832       0.00000000
Si      -1.35796698      -1.35855342      -1.35642158       0.00000000
Si       1.35506736      -1.35726651       1.36286051       0.00000000
Si      -2.69610903      -0.01852173       2.72311804       0.00000000
Si      -0.00076563       2.71345692      -2.71428164       0.00000000
Si      -2.71598283       2.71229544       0.00075349       0.00000000
Si       2.71417464       2.71443269      -0.00037675       0.00000000
Si       2.71433754      -0.00144981      -2.71500088       0.00000000
Si      -2.71557558      -0.00159642      -2.71445289       0.00000000
