10
Lattice="16.28999089631971 0.0 0.0 0.0 16.28999089631971 0.0 0.0 0.0 34.24959146834617" Properties=species:S:1:pos:R:3:initial_magmoms:R:1 pbc="T T T"
Si       0.12232161      -2.36292707       0.02986566       0.00000000
Si      -1.74825909      -0.19200860      -1.68600558       0.00000000
Si       1.87784604       1.31177831      -0.84757511       0.00000000
Si      -0.66552795       0.64492273       2.29832012       0.00000000
Si       1.18131822      -2.73541421      -2.06559402       0.00000000
Si       1.54230462      -2.83527191       1.81156465       0.00000000
Si      -3.72392658      -0.12762726      -0.43055185       0.00000000
Si       1.44552573       3.44959646       0.29338216       0.00000000
Si      -1.77059268      -1.26149501       3.08928063       0.00000000
Si      -3.16969191      -1.65770039       1.25065878       0.00000000
