10
Lattice="16.28999089631971 0.0 0.0 0.0 16.28999089631971 0.0 0.0 0.0 34.24959146834617" Properties=species:S:1:pos:R:3:initial_magmoms:R:1 pbc="T T T"
Si      -1.19252574      -0.60303788      -1.92030717       0.00000000
Si      -1.30632768      -1.04241080       1.64178933       0.00000000
Si       2.04680592      -1.09603748       0.34366059       0.00000000
Si      -0.04281012       2.38281323       0.07723287       0.00000000
Si      -1.30336290       1.36762043      -3.13041441       0.00000000
Si       1.21700961      -3.39273200       0.69903455       0.00000000
Si       3.17492100       0.35521159       1.97500380       0.00000000
Si      -1.65602511       3.05251142      -1.51030508       0.00000000
Si      -3.48130495      -1.29536192       0.75037472       0.00000000
Si      -0.23294700      -2.51339780      -2.89960628       0.00000000
