10
Lattice="16.28999089631971 0.0 0.0 0.0 16.28999089631971 0.0 0.0 0.0 34.24959146834617" Properties=species:S:1:pos:R:3:initial_magmoms:R:1 pbc="T T T"
Si       1.35674523      -1.35666378      -1.35727782       0.00000000
Si      -1.35775521      -1.35764118       1.35765456       0.00000000
Si      -1.35765747       1.35785295      -1.35765456       0.00000000
Si       1.35863487       1.35746199       1.35714082       0.00000000
Si       2.71437012      -2.71423980       0.00034250       0.00000000
Si       2.71450044       0.00307881      -2.71452139       0.00000000
Si      -2.71515204       0.00249237      -2.71404189       0.00000000
Si       0.00166158      -2.71458189      -2.71482963       0.00000000
Si       0.00144981       2.71503801      -2.71452139       0.00000000
Si       2.71541268      -0.00114030       2.71435014       0.00000000
