10
Lattice="16.28999089631971 0.0 0.0 0.0 16.28999089631971 0.0 0.0 0.0 34.24959146834617" Properties=species:S:1:pos:R:3:initial_magmoms:R:1 pbc="T T T"
Si       1.29472920      -1.34361549      -1.39854860       0.00000000
Si      -1.30062618      -1.39846392       1.45869092       0.00000000
Si      -1.41172398       1.38587175      -1.39772661       0.00000000
Si       1.77559371       0.98033220       1.40471353       0.00000000
Si       2.53456110      -2.66732460       0.20854588       0.00000000
Si      -2.60716563      -0.00405621       2.76610130       0.00000000
Si       2.62609461       2.75160906       0.07271192       0.00000000
Si       2.64688065       0.03152115      -2.76216260       0.00000000
Si      -2.76745923      -2.66945859       0.00380171       0.00000000
Si      -0.06805962      -2.68252317      -2.76613555       0.00000000
