10
Lattice="16.28999089631971 0.0 0.0 0.0 16.28999089631971 0.0 0.0 0.0 34.24959146834617" Properties=species:S:1:pos:R:3:initial_magmoms:R:1 pbc="T T T"
Si      -1.35645201       1.35671265      -1.36128502       0.00000000
Si       1.35995436      -1.35905841      -1.36193577       0.00000000
Si       1.37306781       1.35073422       1.36368250       0.00000000
Si      -1.37556018      -1.34807895       1.37998531       0.00000000
Si      -2.71331127      -2.71554300       0.00006850       0.00000000
Si       2.71749780       2.71243161      -0.00472645       0.00000000
Si      -2.71710684       2.71329498      -0.00284272       0.00000000
Si       0.00060273       2.71397916      -2.71904234       0.00000000
Si      -2.71425609      -0.00097740      -2.71893959       0.00000000
Si       2.71673217      -2.71766070      -0.00472645       0.00000000
