10
Lattice="16.28999089631971 0.0 0.0 0.0 16.28999089631971 0.0 0.0 0.0 34.24959146834617" Properties=species:S:1:pos:R:3:initial_magmoms:R:1 pbc="T T T"
Si      -1.57670910      -1.53350802       0.70506248       0.00000000
Si       1.60692705      -0.55620576       1.56568670       0.00000000
Si      -1.11666321       2.06448057       0.25245388       0.00000000
Si       0.93947688      -0.70022565      -2.07970486       0.00000000
Si       3.37391964       0.74155338       0.67067587       0.00000000
Si       1.59689241      -2.97070956       1.07643101       0.00000000
Si       0.74782503       3.48185718       0.78722730       0.00000000
Si       1.04412384       0.36639468       3.72241893       0.00000000
Si      -2.31889779       2.44262034      -1.96294793       0.00000000
Si      -3.44328246      -1.68461406      -0.71831708       0.00000000
