10
Lattice="16.28999089631971 0.0 0.0 0.0 16.28999089631971 0.0 0.0 0.0 34.24959146834617" Properties=species:S:1:pos:R:3:initial_magmoms:R:1 pbc="T T T"
Si       1.18387575      -1.02081285       1.74193520       0.00000000
Si       0.46222875       2.27253645       0.39914496       0.00000000
Si      -2.23624233      -0.79276914      -0.16028818       0.00000000
Si       1.10120400      -0.28551483      -2.28999746       0.00000000
Si       2.81049741       1.87637994       0.54720603       0.00000000
Si      -0.18401184      -2.77469199       2.20697641       0.00000000
Si       2.96569224       1.13186178      -1.75522404       0.00000000
Si      -0.59676786       2.64502359       2.49460464       0.00000000
Si      -3.52768095       0.95966019       0.63221356       0.00000000
Si      -2.40953535      -2.41899984       1.58363350       0.00000000
