10
Lattice="16.28999089631971 0.0 0.0 0.0 16.28999089631971 0.0 0.0 0.0 34.24959146834617" Properties=species:S:1:pos:R:3:initial_magmoms:R:1 pbc="T T T"
Si       1.57670910       1.53350802      -0.70506248       0.00000000
Si      -1.86657336      -0.15110604      -1.42337957       0.00000000
Si      -0.50621175      -0.44061192       2.31626692       0.00000000
Si       0.89722062      -2.32261191      -0.83034756       0.00000000
Si      -0.56003391      -1.54551375      -2.73078995       0.00000000
Si       3.18363615       0.97730226       0.86062422       0.00000000
Si       3.17360151      -1.43720154       0.37136853       0.00000000
Si      -0.34925760      -3.44256570       1.01892592       0.00000000
Si       0.46004589       3.59798859      -0.45260860       0.00000000
Si      -3.65860368      -0.84546729       0.00640468       0.00000000
