10
Lattice="16.28999089631971 0.0 0.0 0.0 16.28999089631971 0.0 0.0 0.0 34.24959146834617" Properties=species:S:1:pos:R:3:initial_magmoms:R:1 pbc="T T T"
Si      -2.10439107       0.63034155       0.81031154       0.00000000
Si      -1.20127347      -1.34340372      -1.52989586       0.00000000
Si       1.41863094       1.33281522      -1.50941459       0.00000000
Si       1.20223458      -0.37813977       2.21540181       0.00000000
Si      -2.45604330      -2.64696210      -0.00164398       0.00000000
Si      -1.72291185       2.66354532       1.82338077       0.00000000
Si      -3.10554189      -1.11568581       1.97911375       0.00000000
Si       2.31889779      -2.44262034       1.96294793       0.00000000
Si      -2.65178394      -0.01326006      -2.90789469       0.00000000
Si       0.04755051       2.70938538      -2.89601007       0.00000000
