10
Lattice="16.28999089631971 0.0 0.0 0.0 16.28999089631971 0.0 0.0 0.0 34.24959146834617" Properties=species:S:1:pos:R:3:initial_magmoms:R:1 pbc="T T T"
Si      -0.68435919       2.24841163      -0.30742450       0.00000000
Si      -2.13195375      -0.66621213      -0.89463408       0.00000000
Si       2.18406546      -0.27500778      -1.03776320       0.00000000
Si       0.15421743      -1.14984594       2.18652939       0.00000000
Si       2.65768092      -2.29052061       0.03216038       0.00000000
Si      -3.32475642      -0.53986689       1.13099064       0.00000000
Si       0.89611290       3.41367443       0.98700528       0.00000000
Si       2.50248609      -1.54600245       2.33459046       0.00000000
Si       0.79319268      -3.70789722      -0.50261304       0.00000000
Si      -0.30801132      -3.42238239       1.78738443       0.00000000
