10
Lattice="16.28999089631971 0.0 0.0 0.0 16.28999089631971 0.0 0.0 0.0 34.24959146834617" Properties=species:S:1:pos:R:3:initial_magmoms:R:1 pbc="T T T"
Si       1.84904532      -1.67361831       0.18857836       0.00000000
Si      -1.95421356      -0.60432642       1.46073360       0.00000000
Si       0.12681765      -0.17679537      -2.50943472       0.00000000
Si       0.65407608       2.00009013       1.47777963       0.00000000
Si      -0.75155544      -1.98926964       3.05438168       0.00000000
Si       1.96553511       0.75222939       3.07471568       0.00000000
Si       0.72448146      -3.39222960       1.54604938       0.00000000
Si       3.33658296      -0.64611027       1.72321919       0.00000000
Si      -0.93499713       1.72195141      -3.44540808       0.00000000
Si       2.33663760       3.20804576       0.27502437       0.00000000
