10
Lattice="16.28999089631971 0.0 0.0 0.0 16.28999089631971 0.0 0.0 0.0 34.24959146834617" Properties=species:S:1:pos:R:3:initial_magmoms:R:1 pbc="T T T"
Si       1.68256152       1.20795563      -1.20275526       0.00000000
Si       1.31145903      -1.24786074       1.59693604       0.00000000
Si      -1.39580865       1.45474913       1.57792751       0.00000000
Si      -0.65407608      -2.00009013      -1.47777963       0.00000000
Si      -2.60828964      -2.60441655      -0.01704603       0.00000000
Si       2.68250688      -2.64620040       0.24543956       0.00000000
Si      -2.59405218       2.97349841       0.08921681       0.00000000
Si      -0.04575861      -2.61236607       2.97033515       0.00000000
Si       2.76482025       2.84687624       0.19788055       0.00000000
Si       2.66851377       0.10352132       2.97588359       0.00000000
