10
Lattice="16.28999089631971 0.0 0.0 0.0 16.28999089631971 0.0 0.0 0.0 34.24959146834617" Properties=species:S:1:pos:R:3:initial_magmoms:R:1 pbc="T T T"
Si      -1.35632169       1.35653835       1.35696957       0.00000000
Si       1.35547341      -1.35842058       1.35683257       0.00000000
Si       1.35951043       1.34577066      -1.36946041       0.00000000
Si      -1.35705474      -1.35138206      -1.37894755       0.00000000
Si      -2.71394658       2.70961833      -0.00592518       0.00000000
Si       2.71460862       2.71152426      -0.00301397       0.00000000
Si      -0.00024435       2.71329987       2.71363090       0.00000000
Si       2.71423070      -0.00128691       2.71342540       0.00000000
Si      -2.71523349      -0.00156221       2.71315140       0.00000000
Si       2.71418508      -2.71565933      -0.00537719       0.00000000
