10
Lattice="16.28999089631971 0.0 0.0 0.0 16.28999089631971 0.0 0.0 0.0 34.24959146834617" Properties=species:S:1:pos:R:3:initial_magmoms:R:1 pbc="T T T"
Si       1.35653856       1.35712153      -1.35806556       0.00000000
Si      -1.35843939      -1.35805014      -1.35799706       0.00000000
Si       1.35966114      -1.36243174       1.35724357       0.00000000
Si      -1.36189287       1.36309996       1.35923005       0.00000000
Si       0.02322954      -2.71678660       2.70297927       0.00000000
Si       2.71219282      -2.71448971      -0.00136998       0.00000000
Si       2.71354652      -0.00034535      -2.71541188       0.00000000
Si      -0.00092853       2.71424143      -2.71520638       0.00000000
Si       2.71436753       2.71525141      -0.00147273       0.00000000
Si      -0.00154755      -2.71530421      -2.71510363       0.00000000
