10
Lattice="16.28999089631971 0.0 0.0 0.0 16.28999089631971 0.0 0.0 0.0 34.24959146834617" Properties=species:S:1:pos:R:3:initial_magmoms:R:1 pbc="T T T"
Si      -1.23274575       1.41229413      -1.38978070       0.00000000
Si       1.51284971      -1.31117395      -1.38745173       0.00000000
Si       1.28673148       1.44179532       1.49386527       0.00000000
Si      -1.36216980      -1.42914125       1.61610213       0.00000000
Si       1.88619371      -0.57181158       2.86915838       0.00000000
Si      -2.45692296      -2.61079113      -0.09028197       0.00000000
Si       0.42066549      -2.52927711       2.58625660       0.00000000
Si      -2.56984524       0.04435767      -2.76483407       0.00000000
Si       0.15170877      -2.68117403      -2.76682054       0.00000000
Si      -2.67833664       2.76716601       0.20697040       0.00000000
