10
Lattice="16.28999089631971 0.0 0.0 0.0 16.28999089631971 0.0 0.0 0.0 34.24959146834617" Properties=species:S:1:pos:R:3:initial_magmoms:R:1 pbc="T T T"
Si       2.25478035       0.54936396      -0.42133871       0.00000000
Si      -0.65862099       2.26993005       0.10990700       0.00000000
Si      -0.90676656      -0.56229822      -2.28410653       0.00000000
Si      -0.92600505      -2.27838130       1.82807297       0.00000000
Si       0.27557793       1.18210014       2.81391376       0.00000000
Si       0.88081659      -1.09356399       2.87261759       0.00000000
Si      -2.99600793      -0.74049453      -1.20096260       0.00000000
Si      -3.04137558      -1.25682237       1.21658042       0.00000000
Si       2.02414653       2.57399919      -1.60082680       0.00000000
Si      -0.17145225      -3.67213157       0.02952316       0.00000000
