10
Lattice="16.28999089631971 0.0 0.0 0.0 16.28999089631971 0.0 0.0 0.0 34.24959146834617" Properties=species:S:1:pos:R:3:initial_magmoms:R:1 pbc="T T T"
Si      -2.13501627      -0.33049152       0.91066290       0.00000000
Si       0.72992232       1.73534112       1.44745704       0.00000000
Si      -0.39762261       0.78029100      -2.21040137       0.00000000
Si       0.95967648      -2.15441766       0.42075647       0.00000000
Si       2.90168883       1.05337656      -1.34213949       0.00000000
Si       1.66260627       0.31591197      -3.23576621       0.00000000
Si      -2.61935055      -2.56617999       0.18830436       0.00000000
Si       0.13317075       3.68776278       0.19234581       0.00000000
Si      -1.73881089      -0.05103657       3.28237993       0.00000000
Si       1.57817520      -2.02872402       2.69075216       0.00000000
