10
Lattice="16.28999089631971 0.0 0.0 0.0 16.28999089631971 0.0 0.0 0.0 34.24959146834617" Properties=species:S:1:pos:R:3:initial_magmoms:R:1 pbc="T T T"
Si       1.35694071      -1.35669636      -1.35707232       0.00000000
Si      -1.35733167       1.35803214      -1.35727782       0.00000000
Si       1.35835794       1.35739683       1.35768881       0.00000000
Si      -1.35925389      -1.35653346       1.35809981       0.00000000
Si       2.71215468       0.00097740       2.71369940       0.00000000
Si       0.00110772       2.71464705      -2.71321990       0.00000000
Si      -2.71360449      -0.00114030       2.71438439       0.00000000
Si       2.71436230       0.00156384      -2.71414464       0.00000000
Si      -2.71521720       0.00136836      -2.71428164       0.00000000
Si       2.71515784      -2.71485882       0.00003425       0.00000000
