10
Lattice="16.28999089631971 0.0 0.0 0.0 16.28999089631971 0.0 0.0 0.0 34.24959146834617" Properties=species:S:1:pos:R:3:initial_magmoms:R:1 pbc="T T T"
Si      -1.35954711       1.36581876      -1.29994397       0.00000000
Si       1.36262985      -1.39931100      -1.29196381       0.00000000
Si      -1.67130513      -0.93273282       1.39878835       0.00000000
Si       1.75768190       0.87860115       1.52695039       0.00000000
Si       0.11104520       0.67347747       3.20870902       0.00000000
Si       0.05978073      -1.92598299       2.70099279       0.00000000
Si       2.61746810       2.59706583       0.12394934       0.00000000
Si      -0.00055386       2.69436600      -2.66307847       0.00000000
Si      -2.71213839      -0.02379969      -2.65842053       0.00000000
Si       2.71802627      -0.02130732      -2.65920827       0.00000000
