10
Lattice="16.28999089631971 0.0 0.0 0.0 16.28999089631971 0.0 0.0 0.0 34.24959146834617" Properties=species:S:1:pos:R:3:initial_magmoms:R:1 pbc="T T T"
Si      -1.35653856      -1.35712153       1.35806556       0.00000000
Si      -1.35746709       1.35711990      -1.35714082       0.00000000
Si       1.35700795      -1.35746688      -1.35734632       0.00000000
Si       1.35782897       1.35812988       1.35659283       0.00000000
Si      -2.71354443       0.00035838      -2.71380215       0.00000000
Si      -0.00174933      -2.71460055      -2.71393914       0.00000000
Si       2.71137484       0.00047241       2.71791210       0.00000000
Si       2.71557766       0.00052128      -2.71376790       0.00000000
Si       2.71403011       2.71557558       0.00003425       0.00000000
Si      -2.71497795      -2.71517167       0.00006850       0.00000000
