10
Lattice="16.28999089631971 0.0 0.0 0.0 16.28999089631971 0.0 0.0 0.0 34.24959146834617" Properties=species:S:1:pos:R:3:initial_magmoms:R:1 pbc="T T T"
Si       1.35490446      -1.35610992      -1.35628458       0.00000000
Si       1.35597960       1.35809730       1.35614758       0.00000000
Si      -1.35843939      -1.35661491       1.35594208       0.00000000
Si      -1.35742941       1.35845568      -1.36313450       0.00000000
Si       2.71325458      -2.71308321      -0.00092474       0.00000000
Si       2.71410252       0.00061902       2.71328840       0.00000000
Si      -0.00110772      -2.71464705       2.71321990       0.00000000
Si       2.71231638       2.71592249      -0.00075349       0.00000000
Si      -0.00091224       2.71535137       2.71325415       0.00000000
Si      -2.71639008       0.00065160       2.71311715       0.00000000
