10
Lattice="16.28999089631971 0.0 0.0 0.0 16.28999089631971 0.0 0.0 0.0 34.24959146834617" Properties=species:S:1:pos:R:3:initial_magmoms:R:1 pbc="T T T"
Si       1.35379674      -1.35641943       1.35601058       0.00000000
Si       1.35685230       1.35786924      -1.35762031       0.00000000
Si      -1.35835794      -1.35739683      -1.35768881       0.00000000
Si      -1.35812988       1.35729909       1.36097678       0.00000000
Si      -0.00519651      -2.68496667       2.71914509       0.00000000
Si       0.02350647       2.71386513       2.70332177       0.00000000
Si       2.71322397      -2.71459818       0.00010275       0.00000000
Si       2.71379738       0.00037467      -2.71482963       0.00000000
Si       2.71246975       2.71616202      -0.00102749       0.00000000
Si      -0.00141723      -2.71409319      -2.71476114       0.00000000
