10
Lattice="16.28999089631971 0.0 0.0 0.0 16.28999089631971 0.0 0.0 0.0 34.24959146834617" Properties=species:S:1:pos:R:3:initial_magmoms:R:1 pbc="T T T"
Si       1.21818249       2.02803984      -0.11709942       0.00000000
Si      -2.34826866       0.39615651      -0.14806107       0.00000000
Si       1.29336084      -1.69051104       1.14482748       0.00000000
Si       0.15519483      -0.74451816      -2.30243007       0.00000000
Si      -2.81049741      -1.87637994      -0.54720603       0.00000000
Si      -1.62662166      -2.89719279       1.19472917       0.00000000
Si      -0.31842063       1.27099467      -3.37235366       0.00000000
Si       3.43194462       1.20208797      -0.09973487       0.00000000
Si       3.46887405      -1.07043219       0.58974405       0.00000000
Si      -2.50248609       1.54600245      -2.33459046       0.00000000
