10
Lattice="16.28999089631971 0.0 0.0 0.0 16.28999089631971 0.0 0.0 0.0 34.24959146834617" Properties=species:S:1:pos:R:3:initial_magmoms:R:1 pbc="T T T"
Si      -1.31906646      -1.36549296      -1.36840894       0.00000000
Si      -0.60707943       2.11727646       0.92672596       0.00000000
Si       1.55466873       1.40436090      -1.19606490       0.00000000
Si      -1.90796625       0.10868688       1.58448974       0.00000000
Si      -0.12846294      -0.75631212       3.10527520       0.00000000
Si       2.40611445      -1.01038725       2.11196799       0.00000000
Si       3.40726527       0.73564011       0.94316578       0.00000000
Si      -2.17885266      -3.08395764       0.03459211       0.00000000
Si      -2.58744659       0.07703541      -2.77860241       0.00000000
Si      -2.45579569       2.92311018      -0.22299921       0.00000000
