10
Lattice="16.28999089631971 0.0 0.0 0.0 16.28999089631971 0.0 0.0 0.0 34.24959146834617" Properties=species:S:1:pos:R:3:initial_magmoms:R:1 pbc="T T T"
Si      -1.35700795       1.35746688       1.35734632       0.00000000
Si      -1.35875728      -1.35713367      -1.35659283       0.00000000
Si       1.35856971       1.35798816      -1.35642158       0.00000000
Si       1.35811359      -1.35808520       1.35738057       0.00000000
Si      -2.71423070       0.00128691      -2.71342540       0.00000000
Si      -0.00135370      -2.71414436       2.71404189       0.00000000
Si      -2.71354652       0.00034535       2.71541188       0.00000000
Si      -2.71447505       2.71458678       0.00020550       0.00000000
Si       0.00037793       2.71281117      -2.71643937       0.00000000
Si       0.00082102       2.71559676       2.71393914       0.00000000
