10
Lattice="16.28999089631971 0.0 0.0 0.0 16.28999089631971 0.0 0.0 0.0 34.24959146834617" Properties=species:S:1:pos:R:3:initial_magmoms:R:1 pbc="T T T"
Si      -0.90147231       1.70331498      -1.36447024       0.00000000
Si      -0.21558186       1.04171292       2.14128566       0.00000000
Si       2.29969188      -0.70196868      -0.11997639       0.00000000
Si      -1.06215687      -2.16148752      -0.03753757       0.00000000
Si       2.17414485      -2.43432873       1.53955425       0.00000000
Si       0.91139292       3.25741356      -1.40820699       0.00000000
Si      -0.07410321      -3.23796330       1.80464623       0.00000000
Si      -1.68767658      -0.24488757       3.33676831       0.00000000
Si       2.70526401      -1.61878617      -2.26523500       0.00000000
Si      -3.32606825      -2.01544767       0.48404975       0.00000000
