10
Lattice="16.28999089631971 0.0 0.0 0.0 16.28999089631971 0.0 0.0 0.0 34.24959146834617" Properties=species:S:1:pos:R:3:initial_magmoms:R:1 pbc="T T T"
Si       0.94052921       1.75984847       1.23583247       0.00000000
Si      -1.78253555      -0.92207916       1.27423656       0.00000000
Si       1.78887495      -1.78303824      -0.24129300       0.00000000
Si      -0.44059670      -2.26067733       2.64495392       0.00000000
Si       2.29076985       0.46625238       2.64300169       0.00000000
Si      -3.27007319      -1.94958720      -0.26040428       0.00000000
Si       0.61796441      -2.95580421      -2.33839666       0.00000000
Si       0.86928816      -3.58096554       1.17837875       0.00000000
Si       3.56336094      -0.92926305       1.21862546       0.00000000
Si       1.94234304       3.39114536      -0.21838001       0.00000000
