10
Lattice="16.28999089631971 0.0 0.0 0.0 16.28999089631971 0.0 0.0 0.0 34.24959146834617" Properties=species:S:1:pos:R:3:initial_magmoms:R:1 pbc="T T T"
Si      -1.12819653       1.52010349       1.34803042       0.00000000
Si      -1.37557647      -1.33768593      -1.36005204       0.00000000
Si       1.33957557       1.37154390      -1.36494973       0.00000000
Si       1.39707927      -1.38236940       1.59288089       0.00000000
Si       2.21760657       0.50160168       2.82161992       0.00000000
Si      -2.61338515       0.13637988       2.56594658       0.00000000
Si       0.59468274       2.39529042       2.88015250       0.00000000
Si       2.70228294      -2.69469180       0.01390534       0.00000000
Si       2.69610903       0.01852173      -2.72311804       0.00000000
Si      -0.01857060      -2.69821044      -2.72260430       0.00000000
