10
Lattice="16.28999089631971 0.0 0.0 0.0 16.28999089631971 0.0 0.0 0.0 34.56954931742767" Properties=species:S:1:pos:R:3:initial_magmoms:R:1 pbc="T T T"
Si      -1.35721601       1.35665053      -1.36266326       0.00000000
Si       1.35965692      -1.35751012      -1.36162617       0.00000000
Si       1.36692878       1.34944546       1.38302473       0.00000000
Si      -1.35531008      -1.36011652       1.38437295       0.00000000
Si      -2.71324448      -2.71609612      -0.00280014       0.00000000
Si      -2.71524815       2.71561609      -0.00283470       0.00000000
Si      -2.71357028      -0.00044741      -2.71924227       0.00000000
Si       2.71905416       2.71457353      -0.00387179       0.00000000
Si       0.00173994       2.71458982      -2.71938055       0.00000000
Si       0.00162466      -2.71565629      -2.71951883       0.00000000
