10
Lattice="16.28999089631971 0.0 0.0 0.0 16.28999089631971 0.0 0.0 0.0 34.56954931742767" Properties=species:S:1:pos:R:3:initial_magmoms:R:1 pbc="T T T"
Si      -1.35513252       1.35570065      -1.36076193       0.00000000
Si       1.36037790      -1.36020140      -1.36013968       0.00000000
Si      -1.35966114      -1.35710630       1.37586883       0.00000000
Si       1.35606105       1.36610182       1.37680221       0.00000000
Si      -2.71019988       2.71274562      -0.00186676       0.00000000
Si      -2.70969489      -2.71803806      -0.00017285       0.00000000
Si      -2.71225242      -0.00203653      -2.71754836       0.00000000
Si       0.00224802       2.71274562      -2.71765207       0.00000000
Si       2.71827972       2.71362528      -0.00044940       0.00000000
Si       0.10492389      -2.66172353       2.76722483       0.00000000
