10
Lattice="16.28999089631971 0.0 0.0 0.0 16.28999089631971 0.0 0.0 0.0 34.56954931742767" Properties=species:S:1:pos:R:3:initial_magmoms:R:1 pbc="T T T"
Si      -1.31429349       1.29826413      -1.44210413       0.00000000
Si      -1.24146090      -1.50004999       1.35063305       0.00000000
Si       0.59474790       1.91197359       1.40774197       0.00000000
Si       1.41887529      -1.40209496      -1.43031590       0.00000000
Si       2.53965987       2.51121753       0.04583925       0.00000000
Si       0.74150451       0.71723241       3.50321095       0.00000000
Si      -2.73961962       2.58333336       0.04608123       0.00000000
Si      -2.64738564      -0.05545116      -2.80898487       0.00000000
Si       0.06421518       2.66388741      -2.80659957       0.00000000
Si       2.82178638      -2.73960724      -0.01455379       0.00000000
