10
Lattice="16.28999089631971 0.0 0.0 0.0 16.28999089631971 0.0 0.0 0.0 34.56954931742767" Properties=species:S:1:pos:R:3:initial_magmoms:R:1 pbc="T T T"
Si       0.46788138       2.30475807       0.19856760       0.00000000
Si      -2.24125965       0.10026495       0.79987068       0.00000000
Si       0.41704029      -1.10003112      -2.07306789       0.00000000
Si       1.76375088      -0.71265492       1.48293079       0.00000000
Si       0.22169061       2.29664565       2.55541708       0.00000000
Si       2.70699075       2.37216609      -0.38738659       0.00000000
Si      -1.97916984       1.55831769       2.70641696       0.00000000
Si       3.65852223       0.34951824       0.40584674       0.00000000
Si       2.42880642      -2.32222421      -1.89482720       0.00000000
Si       1.67501925      -3.10434362       1.57685630       0.00000000
