10
Lattice="16.28999089631971 0.0 0.0 0.0 16.28999089631971 0.0 0.0 0.0 34.56954931742767" Properties=species:S:1:pos:R:3:initial_magmoms:R:1 pbc="T T T"
Si      -1.35742941       1.35746199       1.36376948       0.00000000
Si       1.35866745      -1.35780408       1.36345836       0.00000000
Si      -1.36717083      -1.34949618      -1.36664221       0.00000000
Si       1.37912769       1.35031068      -1.38818251       0.00000000
Si       2.71529865       2.71459818       0.00421749       0.00000000
Si       2.71627605      -2.71469592       0.00463232       0.00000000
Si      -2.71503964      -2.71668330       0.00314583       0.00000000
Si      -2.71725834       2.71836117       0.00248901       0.00000000
Si      -2.71464216      -0.00055386       2.72107446       0.00000000
Si       0.00053757      -2.71516833       2.72083247       0.00000000
