10
Lattice="16.28999089631971 0.0 0.0 0.0 16.28999089631971 0.0 0.0 0.0 34.56954931742767" Properties=species:S:1:pos:R:3:initial_magmoms:R:1 pbc="T T T"
Si       1.35684297       1.35764118       1.35713213       0.00000000
Si      -1.35812988      -1.35736425       1.35737411       0.00000000
Si       1.35760860      -1.35689184      -1.35882603       0.00000000
Si      -1.35866745       1.35780408      -1.36345836       0.00000000
Si       2.71414206      -2.71406061       0.00027656       0.00000000
Si       2.71417464       0.00042354       2.71530134       0.00000000
Si      -0.00081450      -2.71484253       2.71474823       0.00000000
Si      -0.00094482       2.71485882       2.71499021       0.00000000
Si      -2.71588509      -2.71428867       0.00000000       0.00000000
Si      -2.71564074       0.00016290       2.71492107       0.00000000
