10
Lattice="16.28999089631971 0.0 0.0 0.0 16.28999089631971 0.0 0.0 0.0 34.56954931742767" Properties=species:S:1:pos:R:3:initial_magmoms:R:1 pbc="T T T"
Si      -1.45652981       1.24076043      -1.44766983       0.00000000
Si       1.27144313      -1.48700984      -1.44041022       0.00000000
Si       0.76599376       1.70917938       1.56451497       0.00000000
Si      -1.63319486      -1.15136091       1.41897708       0.00000000
Si       2.53133454       2.51690274       0.02775936       0.00000000
Si      -0.09542162       2.59406847      -2.82696104       0.00000000
Si       2.62356852      -0.12188178      -2.82730674       0.00000000
Si      -2.79079484       2.69563662       0.00483974       0.00000000
Si       2.56347471      -2.92557716       0.04124150       0.00000000
Si      -2.74910873      -2.75352509       0.03871792       0.00000000
