10
Lattice="16.28999089631971 0.0 0.0 0.0 16.28999089631971 0.0 0.0 0.0 34.56954931742767" Properties=species:S:1:pos:R:3:initial_magmoms:R:1 pbc="T T T"
Si      -1.58259535       1.54346121       0.76865436       0.00000000
Si      -0.55329474      -2.08003752       1.16260916       0.00000000
Si       1.77725692       1.19047320       1.19735158       0.00000000
Si      -0.31362322       0.67989573      -2.44845884       0.00000000
Si      -0.67242188       3.42648747      -0.32592189       0.00000000
Si       1.74264067       3.02959791      -0.32011421       0.00000000
Si      -1.93198327      -1.06005546       2.84511007       0.00000000
Si      -1.32879715       1.26597735       3.09777905       0.00000000
Si       1.72325557      -2.75156345       1.80726248       0.00000000
Si      -2.11210180      -3.19998154      -0.49624616       0.00000000
