10
Lattice="16.28999089631971 0.0 0.0 0.0 16.28999089631971 0.0 0.0 0.0 34.56954931742767" Properties=species:S:1:pos:R:3:initial_magmoms:R:1 pbc="T T T"
Si       1.35804843       1.35731538       1.35727040       0.00000000
Si       1.35778779      -1.35721764      -1.35785809       0.00000000
Si      -1.35738054       1.35826020      -1.35737411       0.00000000
Si      -1.35979146      -1.35788553       1.35595676       0.00000000
Si      -2.71083519      -0.00263898       2.71530134       0.00000000
Si      -0.00071676      -2.71036278       2.71792863       0.00000000
Si      -2.71469592      -2.71469592      -0.00006914       0.00000000
Si       2.71511946      -2.71443528       0.00031113       0.00000000
Si       0.00003258       2.71531494      -2.71433339       0.00000000
Si      -2.71515204       0.00040725      -2.71467909       0.00000000
