10
Lattice="16.28999089631971 0.0 0.0 0.0 16.28999089631971 0.0 0.0 0.0 34.56954931742767" Properties=species:S:1:pos:R:3:initial_magmoms:R:1 pbc="T T T"
Si      -1.37868853       1.01998206       1.68250091       0.00000000
Si       0.55329474       2.08003752      -1.16260916       0.00000000
Si       2.27655031      -0.67152593       0.64465332       0.00000000
Si      -1.55880706      -1.11994402      -1.65885532       0.00000000
Si      -0.12036681      -2.95327016      -1.77659927       0.00000000
Si      -3.46178857       1.10535795       0.62982297       0.00000000
Si      -1.56921637      -0.51244593       3.40171469       0.00000000
Si      -1.02930061       3.62349873      -0.39395480       0.00000000
Si      -3.64599589      -0.92997655      -0.47826998       0.00000000
Si       2.47321948      -0.18914645       3.02615090       0.00000000
