10
Lattice="16.28999089631971 0.0 0.0 0.0 16.28999089631971 0.0 0.0 0.0 34.56954931742767" Properties=species:S:1:pos:R:3:initial_magmoms:R:1 pbc="T T T"
Si      -1.34522820       1.27523007       1.41920524       0.00000000
Si       1.35940050       1.29253005      -1.41197471       0.00000000
Si      -1.81239282      -0.90223794      -1.24740106       0.00000000
Si       1.36464588      -1.45919304       1.39382427       0.00000000
Si       2.68086159      -0.30151161      -2.49517758       0.00000000
Si      -2.68038918       2.62513350      -0.02013677       0.00000000
Si      -2.62580139      -2.74049928      -0.02379423       0.00000000
Si       0.01529631       2.61635319       2.78478617       0.00000000
Si       2.72523555       2.72396493       0.03916732       0.00000000
Si      -2.69899236      -0.09852192       2.77583265       0.00000000
