10
Lattice="16.28999089631971 0.0 0.0 0.0 16.28999089631971 0.0 0.0 0.0 34.56954931742767" Properties=species:S:1:pos:R:3:initial_magmoms:R:1 pbc="T T T"
Si      -1.93805388      -1.13961582      -0.57001762       0.00000000
Si      -0.31164399       0.67194621       2.21584021       0.00000000
Si      -0.05647743       1.72861335      -1.58480730       0.00000000
Si       1.86051348      -1.25274987      -1.59555844       0.00000000
Si       1.45497393       2.37191997       2.26658834       0.00000000
Si       0.59111523      -1.22996016       3.36565863       0.00000000
Si      -2.78775657       0.95793345       2.21162272       0.00000000
Si      -1.14189642      -3.25378089      -1.63085397       0.00000000
Si      -3.76413030       0.19139121      -1.37030313       0.00000000
Si       1.26021069       3.67875508      -1.14639604       0.00000000
