10
Lattice="16.28999089631971 0.0 0.0 0.0 16.28999089631971 0.0 0.0 0.0 34.56954931742767" Properties=species:S:1:pos:R:3:initial_magmoms:R:1 pbc="T T T"
Si       1.38133987       1.34112149      -1.30605010       0.00000000
Si       1.36351861      -1.23141232       1.46784463       0.00000000
Si      -1.34733588       1.49006096       1.44809157       0.00000000
Si      -1.17094149      -1.33435530      -1.77623080       0.00000000
Si       2.15850319      -0.48001091      -2.73304732       0.00000000
Si      -2.59368795      -2.57480622      -0.10954059       0.00000000
Si      -0.29391558       2.34808784      -2.82151085       0.00000000
Si      -2.11272570       0.58611257      -3.04451913       0.00000000
Si       2.73929056      -2.56978890       0.03573111       0.00000000
Si       0.00685972      -2.58119190       2.83584888       0.00000000
