10
Lattice="16.28999089631971 0.0 0.0 0.0 16.28999089631971 0.0 0.0 0.0 34.56954931742767" Properties=species:S:1:pos:R:3:initial_magmoms:R:1 pbc="T T T"
Si      -1.48877568      -0.25383078       1.79485200       0.00000000
Si       0.80127252      -2.24880192      -0.25066394       0.00000000
Si       2.05719894       1.17537237       0.48846800       0.00000000
Si      -1.44912582       0.34575525      -1.97731019       0.00000000
Si       3.18386421       0.23666112      -1.36290524       0.00000000
Si      -3.16311075      -1.39906665       0.60068082       0.00000000
Si      -3.42117693       0.55485369      -0.77982033       0.00000000
Si       2.63524959      -2.07070335      -1.70718358       0.00000000
Si      -0.57757824      -0.98785818       3.81672236       0.00000000
Si      -0.62509617      -3.89446659      -1.05416443       0.00000000
