10
Lattice="16.28999089631971 0.0 0.0 0.0 16.28999089631971 0.0 0.0 0.0 34.56954931742767" Properties=species:S:1:pos:R:3:initial_magmoms:R:1 pbc="T T T"
Si       2.16593469       0.70992050      -0.26307442       0.00000000
Si      -0.41995620      -2.06402445      -0.92836577       0.00000000
Si       1.13119389      -0.45437697       2.03020163       0.00000000
Si      -1.78254954       1.55051545      -0.45023406       0.00000000
Si      -2.52351648       1.11775368       1.73487380       0.00000000
Si      -0.66217221       0.49596487       3.16892322       0.00000000
Si       1.55484792       2.74684328       1.05067290       0.00000000
Si      -1.33115364      -1.32999705      -2.95023613       0.00000000
Si      -2.74199796       0.44447430      -2.26434132       0.00000000
Si       3.23229438      -0.24755913      -2.12177641       0.00000000
