10
Lattice="16.28999089631971 0.0 0.0 0.0 16.28999089631971 0.0 0.0 0.0 34.56954931742767" Properties=species:S:1:pos:R:3:initial_magmoms:R:1 pbc="T T T"
Si       0.26326269      -0.18352151      -2.29144148       0.00000000
Si      -0.81205650      -1.91737765       1.21219955       0.00000000
Si       2.00052603       0.81848128       1.09545121       0.00000000
Si      -1.80897192       1.65668811      -0.09983484       0.00000000
Si       0.56988936       2.05554876       2.58218810       0.00000000
Si      -2.18118213      -0.66767229       2.61132334       0.00000000
Si      -0.73972890       3.41509587       1.15314436       0.00000000
Si       0.94560192       2.11378551      -2.88572693       0.00000000
Si      -3.14375823      -1.49856175      -1.32055514       0.00000000
Si      -3.51230319       0.67814456       1.22072787       0.00000000
