10
Lattice="16.28999089631971 0.0 0.0 0.0 16.28999089631971 0.0 0.0 0.0 34.56954931742767" Properties=species:S:1:pos:R:3:initial_magmoms:R:1 pbc="T T T"
Si       1.52919117       1.07248473      -1.33490389       0.00000000
Si      -0.79325784       1.47369114       1.71077881       0.00000000
Si      -1.15342974      -1.66886554      -1.29276359       0.00000000
Si       2.08989297      -0.66057253       1.70134132       0.00000000
Si       0.02847492      -0.34699981       3.04948536       0.00000000
Si       0.14700096       2.36820762      -2.71284690       0.00000000
Si      -1.28821320      -2.29714154       2.61107409       0.00000000
Si      -2.55634083      -0.33135326      -2.70852570       0.00000000
Si       2.53579914       2.75146245      -0.07138616       0.00000000
Si       0.69432867       3.46794552       1.26953284       0.00000000
