10
Lattice="16.28999089631971 0.0 0.0 0.0 16.28999089631971 0.0 0.0 0.0 34.56954931742767" Properties=species:S:1:pos:R:3:initial_magmoms:R:1 pbc="T T T"
Si      -0.56200500       0.45835743       2.19948880       0.00000000
Si       2.14031052      -1.11398988       0.01393154       0.00000000
Si      -0.23143203       2.15742398      -1.11977747       0.00000000
Si      -1.76661792      -1.69997376      -0.05074813       0.00000000
Si       1.16553321       2.01343667       2.51849678       0.00000000
Si      -1.45497393      -2.37191997      -2.26658834       0.00000000
Si      -0.19476324       1.30683511      -3.41298437       0.00000000
Si      -2.57377113       1.68055052       2.02124811       0.00000000
Si       1.49825646      -3.28328031       0.80910075       0.00000000
Si      -1.77639192       3.26814134       0.45251565       0.00000000
