10
Lattice="16.28999089631971 0.0 0.0 0.0 16.28999089631971 0.0 0.0 0.0 34.56954931742767" Properties=species:S:1:pos:R:3:initial_magmoms:R:1 pbc="T T T"
Si       1.99523178       1.39776345      -0.02471724       0.00000000
Si       0.23143203      -2.15742398       1.11977747       0.00000000
Si       0.03666879      -0.85058887      -2.29320691       0.00000000
Si      -1.54495989       1.11071736       1.57229312       0.00000000
Si       2.05504866       1.69903071       2.25573349       0.00000000
Si      -0.04088790       2.77689114       2.46550164       0.00000000
Si      -0.33057297      -1.69906655       3.31926627       0.00000000
Si      -0.78506397       0.97010208      -3.63191345       0.00000000
Si       1.39696524      -0.14398731       3.63827425       0.00000000
Si      -2.34233910      -0.47687346       3.14102558       0.00000000
