10
Lattice="16.28999089631971 0.0 0.0 0.0 16.28999089631971 0.0 0.0 0.0 34.56954931742767" Properties=species:S:1:pos:R:3:initial_magmoms:R:1 pbc="T T T"
Si      -0.94249053       1.74350241      -1.22424670       0.00000000
Si       0.13708035       1.81755675       1.49668947       0.00000000
Si       1.84147047      -0.71648307      -1.34091900       0.00000000
Si      -1.48758651      -1.99425438       0.44124597       0.00000000
Si      -2.12988492       0.11401371      -2.50190339       0.00000000
Si       1.70893503       0.59593707       2.93070432       0.00000000
Si       2.62870101       2.20910319       0.84318635       0.00000000
Si       0.83486250      -2.39546079      -2.60443673       0.00000000
Si       2.94775695      -2.19805857       0.02983354       0.00000000
Si      -0.69432867      -3.46794552      -1.26953284       0.00000000
