10
Lattice="16.28999089631971 0.0 0.0 0.0 16.28999089631971 0.0 0.0 0.0 34.56954931742767" Properties=species:S:1:pos:R:3:initial_magmoms:R:1 pbc="T T T"
Si       1.10628648      -1.48157550       1.37075254       0.00000000
Si      -1.00660797      -1.67897772      -1.26351773       0.00000000
Si       1.71722664       1.08134649      -1.18366203       0.00000000
Si      -1.84147047       0.71648307       1.34091900       0.00000000
Si       0.34336062       2.34944154      -2.63741610       0.00000000
Si       1.73688867       0.23758965       3.10261879       0.00000000
Si      -2.38879818      -0.38325483      -2.64146074       0.00000000
Si      -2.78396100       2.45998548       0.11667229       0.00000000
Si       0.78723054       2.92558626       2.18410535       0.00000000
Si      -2.53579914      -2.75146245       0.07138616       0.00000000
