10
Lattice="16.28999089631971 0.0 0.0 0.0 16.28999089631971 0.0 0.0 0.0 34.56954931742767" Properties=species:S:1:pos:R:3:initial_magmoms:R:1 pbc="T T T"
Si      -1.94487939      -0.73275678       1.41587762       0.00000000
Si       0.57163239       1.93815162       1.56546014       0.00000000
Si       2.09383515      -1.80032193       0.30089353       0.00000000
Si      -1.08804168      -1.89912078      -1.83685403       0.00000000
Si       0.24345405       1.50232896      -2.63133186       0.00000000
Si      -1.54691469       0.09254349      -2.99289497       0.00000000
Si      -0.62957592      -1.97196966       3.04033622       0.00000000
Si       0.79760727      -3.31089363       1.62795501       0.00000000
Si       2.07080109       0.76129686       3.06403366       0.00000000
Si       3.51316656      -0.47268693       1.68296556       0.00000000
