10
Lattice="16.28999089631971 0.0 0.0 0.0 16.28999089631971 0.0 0.0 0.0 34.56954931742767" Properties=species:S:1:pos:R:3:initial_magmoms:R:1 pbc="T T T"
Si       2.17613223       0.44259930       0.87319273       0.00000000
Si      -0.32913945       2.30325939      -0.58585048       0.00000000
Si      -1.97527653      -0.58772691       1.30175168       0.00000000
Si       0.09350460      -1.05243174      -2.39169561       0.00000000
Si      -0.23719869       1.38235311      -3.05906113       0.00000000
Si      -3.33154935       0.30222837      -0.62114601       0.00000000
Si      -0.12650814      -3.42272448      -0.41995112       0.00000000
Si       3.39767046      -1.52316387       0.53807534       0.00000000
Si      -2.02137723      -2.98263384       1.19914920       0.00000000
Si       2.01727215       0.88734888       3.15817208       0.00000000
