10
Lattice="16.28999089631971 0.0 0.0 0.0 16.28999089631971 0.0 0.0 0.0 34.56954931742767" Properties=species:S:1:pos:R:3:initial_magmoms:R:1 pbc="T T T"
Si       1.26550168       1.44638910      -1.37758836       0.00000000
Si      -1.28369012      -1.34022717      -1.50100172       0.00000000
Si       1.29192406      -1.37674935       1.51949156       0.00000000
Si      -1.41946844       1.32851466       1.49297325       0.00000000
Si       2.60978506      -2.75967261       0.13679178       0.00000000
Si      -2.71758969      -2.66494626       0.02080397       0.00000000
Si       2.26930777       0.12510720      -3.13991040       0.00000000
Si       2.73158539       2.76034050       0.08802795       0.00000000
Si      -1.47739941      -0.01021383      -3.62053111       0.00000000
Si       2.65909489      -0.02725317       2.88613378       0.00000000
