10
Lattice="16.28999089631971 0.0 0.0 0.0 16.28999089631971 0.0 0.0 0.0 34.56954931742767" Properties=species:S:1:pos:R:3:initial_magmoms:R:1 pbc="T T T"
Si       1.35739683       1.35663120       1.35706299       0.00000000
Si      -1.35814617      -1.35779105       1.35682100       0.00000000
Si      -1.36130643       1.35628911      -1.35771981       0.00000000
Si       1.35741312      -1.35707103      -1.36297438       0.00000000
Si      -2.69773803       0.00671148      -2.72920176       0.00000000
Si       2.71393029       2.71391400       0.00006914       0.00000000
Si      -0.00016290       2.71430496       2.71412597       0.00000000
Si      -2.71524978       2.71376739       0.00013828       0.00000000
Si       2.71487039      -0.00091224       2.71443710       0.00000000
Si      -2.71529865      -0.00122175       2.71440253       0.00000000
