10
Lattice="16.28999089631971 0.0 0.0 0.0 16.28999089631971 0.0 0.0 0.0 34.56954931742767" Properties=species:S:1:pos:R:3:initial_magmoms:R:1 pbc="T T T"
Si      -1.11591387      -1.60216418      -1.38025917       0.00000000
Si       0.60071004      -1.01933698       2.09775056       0.00000000
Si       1.63319486       1.15136091      -1.41897708       0.00000000
Si      -1.76854014       1.28407554       1.14027722       0.00000000
Si      -1.48647879      -0.82936951       3.27833590       0.00000000
Si      -3.32073279      -0.64638394       1.54225217       0.00000000
Si       2.39918861       2.86054029       0.14553788       0.00000000
Si       0.17666505       2.39212134      -2.86664691       0.00000000
Si      -2.76252336      -2.65377851       0.13302370       0.00000000
Si      -2.52999990      -0.32805617      -2.86733830       0.00000000
