10
Lattice="16.28999089631971 0.0 0.0 0.0 16.28999089631971 0.0 0.0 0.0 34.56954931742767" Properties=species:S:1:pos:R:3:initial_magmoms:R:1 pbc="T T T"
Si       1.43844025      -1.83332614      -0.11774395       0.00000000
Si      -2.08718883       0.18996746       1.18058534       0.00000000
Si      -0.60071004       1.01933698      -2.09775056       0.00000000
Si       1.55880706       1.11994402       1.65885532       0.00000000
Si      -2.36925018       2.30341252      -0.95747334       0.00000000
Si      -1.90298151       2.22530197       2.28867829       0.00000000
Si      -2.25292329      -1.85393299       2.32884813       0.00000000
Si       2.11210180       3.19998154       0.49624616       0.00000000
Si       0.49792014      -3.80164684       0.68160818       0.00000000
Si      -1.71662391      -0.58282720      -3.47800973       0.00000000
