10
Lattice="16.28999089631971 0.0 0.0 0.0 16.28999089631971 0.0 0.0 0.0 34.56954931742767" Properties=species:S:1:pos:R:3:initial_magmoms:R:1 pbc="T T T"
Si      -0.23829012       2.02468410      -1.17100957       0.00000000
Si      -1.37704257       0.77722848       1.77777464       0.00000000
Si       2.37443040      -0.24777090       0.21816855       0.00000000
Si      -1.05542910      -2.08791278      -0.63300337       0.00000000
Si      -2.05938180      -1.52007854       2.37206009       0.00000000
Si      -0.59456871      -3.17782781       1.58297512       0.00000000
Si      -0.14944446       1.55950686      -3.42297498       0.00000000
Si       2.85327495      -2.49239348      -0.26767217       0.00000000
Si      -2.38909140       2.87080299      -0.70909099       0.00000000
Si      -0.16198776       2.40792264       3.05615728       0.00000000
