10
Lattice="16.28999089631971 0.0 0.0 0.0 16.28999089631971 0.0 0.0 0.0 34.56954931742767" Properties=species:S:1:pos:R:3:initial_magmoms:R:1 pbc="T T T"
Si      -1.44236547       1.23398379       1.38106809       0.00000000
Si      -1.41933141      -1.32763500      -1.38207203       0.00000000
Si       1.30407966      -1.48579461       1.36844675       0.00000000
Si       0.64508400       1.85056029      -1.62513067       0.00000000
Si       2.50997949       2.61379566      -0.13811580       0.00000000
Si      -0.06815736       2.58431076       2.74779673       0.00000000
Si       0.18482634      -2.50882290      -2.81549920       0.00000000
Si      -2.94153417       2.41083855      -0.11750542       0.00000000
Si       2.64950334      -0.13380606       2.74371752       0.00000000
Si       2.70189198      -2.77044030      -0.12614090       0.00000000
