10
Lattice="16.28999089631971 0.0 0.0 0.0 16.28999089631971 0.0 0.0 0.0 34.56954931742767" Properties=species:S:1:pos:R:3:initial_magmoms:R:1 pbc="T T T"
Si       1.35692442       1.35718506      -1.35720126       0.00000000
Si      -1.35705474      -1.35803214      -1.35689014       0.00000000
Si      -1.35698958       1.35772263       1.35758153       0.00000000
Si       1.35803214      -1.35749457       1.35709756       0.00000000
Si      -2.71484253       0.00089595       2.71357286       0.00000000
Si      -2.71363707       0.00185706      -2.71488650       0.00000000
Si      -2.71404432       2.71456560      -0.00024199       0.00000000
Si       0.00161271       2.71536381       2.71340001       0.00000000
Si      -2.71433754      -2.71495656       0.00020742       0.00000000
Si      -0.00175932       2.71697652      -2.71246663       0.00000000
