10
Lattice="16.28999089631971 0.0 0.0 0.0 16.28999089631971 0.0 0.0 0.0 34.56954931742767" Properties=species:S:1:pos:R:3:initial_magmoms:R:1 pbc="T T T"
Si      -0.16433352      -1.79727570       1.51428538       0.00000000
Si       2.26815444       0.72086508       0.49050761       0.00000000
Si      -1.86942411       1.07483049       1.16900453       0.00000000
Si      -0.63060219      -1.71916515      -1.73186625       0.00000000
Si      -0.94965813       2.68799661      -0.91851344       0.00000000
Si      -2.28564990      -1.08769959       2.28674240       0.00000000
Si      -1.73688867      -0.23758965      -3.10261879       0.00000000
Si       1.91876652      -1.88265159       2.56696332       0.00000000
Si       1.81710063       1.80258624      -2.81614077       0.00000000
Si       2.52195264       0.44338122       2.81963230       0.00000000
