10
Lattice="16.28999089631971 0.0 0.0 0.0 16.28999089631971 0.0 0.0 0.0 34.56954931742767" Properties=species:S:1:pos:R:3:initial_magmoms:R:1 pbc="T T T"
Si      -1.35534152       1.35609363      -1.35861862       0.00000000
Si       1.35788734      -1.35918873      -1.35848034       0.00000000
Si       1.35764299       1.35521397       1.37579969       0.00000000
Si      -1.36110818      -1.35330804       1.37929122       0.00000000
Si       0.09542162      -2.59406847       2.82696104       0.00000000
Si      -2.71335737      -0.00071676      -2.71616558       0.00000000
Si       0.00121113       2.71394658      -2.71609644       0.00000000
Si      -2.71531217      -2.71490769       0.00069139       0.00000000
Si      -2.71402526       2.71637379      -0.00065682       0.00000000
Si       2.72047253       2.71111212      -0.00058768       0.00000000
