10
Lattice="16.28999089631971 0.0 0.0 0.0 16.28999089631971 0.0 0.0 0.0 34.56954931742767" Properties=species:S:1:pos:R:3:initial_magmoms:R:1 pbc="T T T"
Si      -1.05538023      -1.73012832      -1.29203763       0.00000000
Si       1.66408866      -1.00279611       1.41545099       0.00000000
Si       0.89694369       1.39105197      -1.76802602       0.00000000
Si      -1.08714573       1.55408229       1.59123724       0.00000000
Si      -0.13561425      -0.11696220      -3.37955560       0.00000000
Si      -0.32459454       3.35681514      -1.43290862       0.00000000
Si       2.20610583       0.90609867       2.78769001       0.00000000
Si       0.81404388      -2.80495881      -2.46104216       0.00000000
Si      -2.62723491      -0.50850864      -2.72605247       0.00000000
Si      -0.48345462       3.80156472       0.85207073       0.00000000
