10
Lattice="16.28999089631971 0.0 0.0 0.0 16.28999089631971 0.0 0.0 0.0 34.56954931742767" Properties=species:S:1:pos:R:3:initial_magmoms:R:1 pbc="T T T"
Si      -2.29923576      -0.28496097       0.27928755       0.00000000
Si       1.04221791      -2.05346853      -0.38866566       0.00000000
Si       1.07127927       0.35860806       2.09066380       0.00000000
Si       0.52051437       1.55448954      -1.73912586       0.00000000
Si       2.95067286       1.54137609       1.18608190       0.00000000
Si       0.16395885       3.58445160      -0.55570582       0.00000000
Si      -2.62624122      -0.40164624       2.63171212       0.00000000
Si      -3.34884933       1.49675778      -0.86544915       0.00000000
Si       2.61987183       0.95234598      -2.59752282       0.00000000
Si       3.38173884      -1.88874405       0.05074813       0.00000000
