10
Lattice="16.28999089631971 0.0 0.0 0.0 16.28999089631971 0.0 0.0 0.0 34.56954931742767" Properties=species:S:1:pos:R:3:initial_magmoms:R:1 pbc="T T T"
Si      -1.35764299      -1.35521397      -1.37579969       0.00000000
Si       1.36282954       1.35589815      -1.37638738       0.00000000
Si      -1.37070480       1.35000117       1.40262568       0.00000000
Si       1.26911317      -1.43237970       1.47892072       0.00000000
Si       0.26224619       2.43677223       2.68806052       0.00000000
Si      -2.21625354      -0.29481642       2.92614114       0.00000000
Si      -0.49622761      -2.24010306       3.01567632       0.00000000
Si       2.69443931      -2.71744893      -0.00926464       0.00000000
Si       2.71807609       2.70179424      -0.00604967       0.00000000
Si      -2.71875117      -2.70852201       0.00349153       0.00000000
