10
Lattice="16.28999089631971 0.0 0.0 0.0 16.28999089631971 0.0 0.0 0.0 34.56954931742767" Properties=species:S:1:pos:R:3:initial_magmoms:R:1 pbc="T T T"
Si      -0.76599376      -1.70917938      -1.56451497       0.00000000
Si       1.76534078       0.80772336      -1.53675560       0.00000000
Si       0.31362322      -0.67989573       2.44845884       0.00000000
Si      -1.72002593       1.94528664      -0.08953518       0.00000000
Si      -0.35879865       2.74659174       2.12253694       0.00000000
Si      -1.26897212       0.86356548       3.21711320       0.00000000
Si      -2.39918861      -2.86054029      -0.14553788       0.00000000
Si      -2.22252356      -0.46841895      -3.01218479       0.00000000
Si       2.05626389       2.34970218       2.12834463       0.00000000
Si       0.49622761       2.24010306      -3.01567632       0.00000000
