10
Lattice="16.28999089631971 0.0 0.0 0.0 16.28999089631971 0.0 0.0 0.0 34.56954931742767" Properties=species:S:1:pos:R:3:initial_magmoms:R:1 pbc="T T T"
Si       2.09935746      -0.60214356      -0.85839696       0.00000000
Si      -0.35655552       2.02996206       1.18342004       0.00000000
Si      -1.19389410       0.04584006      -2.05484973       0.00000000
Si      -0.52051437      -1.55448954       1.73912586       0.00000000
Si      -0.59020299       2.29332249      -2.79401625       0.00000000
Si      -2.72150514       1.88898840       1.56285563       0.00000000
Si       1.55734029      -2.51103834      -2.23063599       0.00000000
Si       3.35912832      -1.21510368       1.04019832       0.00000000
Si       2.43015849      -0.01311345       2.92520776       0.00000000
Si      -3.51769518      -0.18192672      -1.46374468       0.00000000
