10
Lattice="16.28999089631971 0.0 0.0 0.0 16.28999089631971 0.0 0.0 0.0 34.56954931742767" Properties=species:S:1:pos:R:3:initial_magmoms:R:1 pbc="T T T"
Si      -2.31176996      -0.38894004      -0.32225752       0.00000000
Si       0.79428411      -0.46444419      -2.22268499       0.00000000
Si       0.24596271       2.30301504       0.68796899       0.00000000
Si       1.33998282      -1.60694334       1.22663200       0.00000000
Si       2.51678871       2.62446561      -0.01386240       0.00000000
Si      -2.56556816      -0.11145618      -2.65138221       0.00000000
Si       3.54222792      -1.10846934       0.27773191       0.00000000
Si       3.14672301      -0.74279142      -2.05471145       0.00000000
Si       0.89858898      -1.29490839       3.56709551       0.00000000
Si      -0.98297281      -1.65491739      -3.42003656       0.00000000
