10
Lattice="16.28999089631971 0.0 0.0 0.0 16.28999089631971 0.0 0.0 0.0 34.56954931742767" Properties=species:S:1:pos:R:3:initial_magmoms:R:1 pbc="T T T"
Si      -1.35562122      -1.35764118      -1.35682100       0.00000000
Si       1.35716877      -1.35695700       1.35778895       0.00000000
Si      -1.35769005       1.35788553       1.35751239       0.00000000
Si       1.35801585       1.35829278      -1.35761610       0.00000000
Si      -0.00236205      -2.71238274      -2.71225922       0.00000000
Si       0.00100998      -2.71399545       2.71360743       0.00000000
Si       2.71445157      -2.71415835      -0.00020742       0.00000000
Si      -2.71464705      -2.71479366      -0.00003457       0.00000000
Si       2.71528236       0.00131949       2.71530134       0.00000000
Si      -2.71529865       0.00158013       2.71540505       0.00000000
