10
Lattice="16.28999089631971 0.0 0.0 0.0 16.28999089631971 0.0 0.0 0.0 34.56954931742767" Properties=species:S:1:pos:R:3:initial_magmoms:R:1 pbc="T T T"
Si       1.34486982       1.35692442      -1.38333586       0.00000000
Si      -1.37235105      -1.35479043      -1.38032831       0.00000000
Si      -1.26384336       1.44695925       1.46737448       0.00000000
Si       1.25304309      -1.50330636       1.43626187       0.00000000
Si      -2.16950220      -0.42710751       2.82989946       0.00000000
Si       2.69172702      -2.71331127      -0.01120054       0.00000000
Si       2.70280422       2.71290402       0.00383722       0.00000000
Si      -2.72078838       2.71016730      -0.00919551       0.00000000
Si       2.70267390       0.00100998      -2.74223103       0.00000000
Si      -2.73391812      -2.71792134      -0.00362980       0.00000000
