10
Lattice="16.28999089631971 0.0 0.0 0.0 16.28999089631971 0.0 0.0 0.0 34.56954931742767" Properties=species:S:1:pos:R:3:initial_magmoms:R:1 pbc="T T T"
Si       0.60217614      -0.70752357      -2.10590898       0.00000000
Si      -0.73632429      -1.67734872       1.57177458       0.00000000
Si      -2.14866729       1.24019028      -0.45866904       0.00000000
Si       2.21586584       0.85217877       0.86195762       0.00000000
Si      -0.88011612      -0.11824911       3.35815704       0.00000000
Si      -1.58951304      -1.55321892      -2.72007194       0.00000000
Si       1.54269625       1.26079713      -2.90526112       0.00000000
Si      -1.61818344       2.07482472       2.70745405       0.00000000
Si       3.20586290      -0.91109970       2.01478360       0.00000000
Si       2.63183751      -1.97377785      -2.13363378       0.00000000
