10
Lattice="16.28999089631971 0.0 0.0 0.0 16.28999089631971 0.0 0.0 0.0 34.56954931742767" Properties=species:S:1:pos:R:3:initial_magmoms:R:1 pbc="T T T"
Si       0.16573446       2.04390045      -1.14826279       0.00000000
Si      -1.39486383       0.11963376       1.89071342       0.00000000
Si       2.14866729      -1.24019028       0.45866904       0.00000000
Si      -1.14116337      -1.03925313      -2.14701220       0.00000000
Si       0.53048385       0.83463444       3.16612308       0.00000000
Si       0.55915425      -2.79340920      -2.26140290       0.00000000
Si       2.25292329       1.85393299      -2.32884813       0.00000000
Si       2.75084343      -1.94771385      -1.64723995       0.00000000
Si       1.41234300      -2.91753900       2.03044361       0.00000000
Si      -2.03691789      -2.04965667       2.68588264       0.00000000
