10
Lattice="16.28999089631971 0.0 0.0 0.0 16.28999089631971 0.0 0.0 0.0 34.56954931742767" Properties=species:S:1:pos:R:3:initial_magmoms:R:1 pbc="T T T"
Si      -0.69111954       0.26054226      -2.20588417       0.00000000
Si      -0.77818959       1.47215988       1.67925137       0.00000000
Si       2.35245519       0.30263562      -0.05873370       0.00000000
Si      -0.94858299      -2.08902960       0.83710210       0.00000000
Si      -3.08806272       0.93177171       1.50322312       0.00000000
Si      -2.73909834      -1.31531976       2.17622348       0.00000000
Si       0.95728185      -3.38344929       1.45133420       0.00000000
Si      -0.03466512      -1.60634061      -3.48018761       0.00000000
Si       3.37515768      -1.73757285      -0.65326114       0.00000000
Si       3.13051446       1.06767918       2.04458257       0.00000000
