10
Lattice="16.28999089631971 0.0 0.0 0.0 16.28999089631971 0.0 0.0 0.0 34.56954931742767" Properties=species:S:1:pos:R:3:initial_magmoms:R:1 pbc="T T T"
Si       2.23145307       0.34492446      -0.70421668       0.00000000
Si      -1.40739084       1.58705325      -1.07072325       0.00000000
Si      -0.04096935      -0.02155167       2.40137509       0.00000000
Si      -0.52595523      -2.27080971      -0.62059290       0.00000000
Si       1.01229318      -2.11221027       2.90239184       0.00000000
Si       3.45934440      -1.36576989       0.39454249       0.00000000
Si       0.75020337      -3.57026301       0.99584556       0.00000000
Si      -3.60643400       1.28987478      -0.18225077       0.00000000
Si      -1.17858150       1.32711372      -3.49971942       0.00000000
Si       3.12645825       2.36061648       0.25477772       0.00000000
