10
Lattice="16.28999089631971 0.0 0.0 0.0 16.28999089631971 0.0 0.0 0.0 34.56954931742767" Properties=species:S:1:pos:R:3:initial_magmoms:R:1 pbc="T T T"
Si       1.28369012       1.34022717       1.50100172       0.00000000
Si       0.92748158      -1.90591371      -1.26455482       0.00000000
Si      -1.43389958      -1.32471909       1.52180569       0.00000000
Si      -0.19370930       1.33001334      -2.11952939       0.00000000
Si      -2.42468996       0.59601852      -2.73386520       0.00000000
Si       2.54919180       2.78661627       0.12341336       0.00000000
Si      -2.64574526      -2.72513781       0.03190771       0.00000000
Si       1.80433155       0.61740729      -3.28936359       0.00000000
Si       2.60273703      -2.91288006       0.25090593       0.00000000
Si       2.57561418      -0.03652218       3.02049328       0.00000000
