10
Lattice="16.28999089631971 0.0 0.0 0.0 16.28999089631971 0.0 0.0 0.0 34.56954931742767" Properties=species:S:1:pos:R:3:initial_magmoms:R:1 pbc="T T T"
Si      -1.35424750       1.35404109       1.36117677       0.00000000
Si       1.35982893      -1.36089918       1.36128047       0.00000000
Si       1.35554466       1.35275418      -1.38284497       0.00000000
Si      -1.36130500      -1.36259334      -1.39564954       0.00000000
Si      -2.71158683       2.71041165       0.00006914       0.00000000
Si       2.71655787       2.71120986      -0.00096795       0.00000000
Si       0.00290451       2.71166598       2.71841260       0.00000000
Si      -2.71266197      -0.00307881       2.71817061       0.00000000
Si      -2.71181489      -2.71942002       0.00203960       0.00000000
Si       2.71725834      -2.71836117      -0.00248901       0.00000000
