10
Lattice="16.28999089631971 0.0 0.0 0.0 16.28999089631971 0.0 0.0 0.0 34.56954931742767" Properties=species:S:1:pos:R:3:initial_magmoms:R:1 pbc="T T T"
Si       1.34662099      -1.26537462      -1.44372889       0.00000000
Si       1.31725012       1.39996260       1.48998298       0.00000000
Si      -1.63763437       1.35000117      -1.23416817       0.00000000
Si      -0.49036225      -1.24207992       2.14116994       0.00000000
Si      -0.71241124       2.66621688       1.51770777       0.00000000
Si       0.22934854      -3.19565817       1.00642385       0.00000000
Si      -2.90410042       1.82052153       0.90354482       0.00000000
Si      -0.28633000      -2.35214568      -2.72916374       0.00000000
Si       2.70895207       2.48761332      -0.16126704       0.00000000
Si       2.40006109       0.32114106      -2.82626965       0.00000000
