10
Lattice="16.28999089631971 0.0 0.0 0.0 16.28999089631971 0.0 0.0 0.0 34.56954931742767" Properties=species:S:1:pos:R:3:initial_magmoms:R:1 pbc="T T T"
Si      -1.35003375      -1.36093176      -1.37604168       0.00000000
Si       1.35966114       1.35710630      -1.37586883       0.00000000
Si       1.46458503      -1.30461723       1.39135600       0.00000000
Si      -1.41063255       1.26615654       1.49081265       0.00000000
Si      -2.52543218      -0.35199432       2.82364237       0.00000000
Si      -2.70266413       2.70472385       0.00916094       0.00000000
Si       0.05538600       2.62525309       2.78188233       0.00000000
Si      -2.72520949      -2.71251306      -0.01977379       0.00000000
Si       2.71572219       2.72320812       0.00093338       0.00000000
Si       2.73626388      -2.70782154      -0.00642994       0.00000000
