10
Lattice="16.28999089631971 0.0 0.0 0.0 16.28999089631971 0.0 0.0 0.0 34.56954931742767" Properties=species:S:1:pos:R:3:initial_magmoms:R:1 pbc="T T T"
Si      -1.33999978      -1.36200690      -1.35730497       0.00000000
Si       1.32900988      -1.41317379       1.32370335       0.00000000
Si       1.37517574       1.35158130      -1.35626789       0.00000000
Si      -1.41346768       1.21427289       1.47027832       0.00000000
Si       0.19977730       2.36051874       2.84341616       0.00000000
Si      -2.69969350       2.70767493       0.03028294       0.00000000
Si      -2.69982382      -0.00421911      -2.71578531       0.00000000
Si       0.01527350       2.71028133      -2.71571617       0.00000000
Si      -2.71077070      -2.71854036       0.01524518       0.00000000
Si       2.72520949       2.71251306       0.01977379       0.00000000
