10
Lattice="16.28999089631971 0.0 0.0 0.0 16.28999089631971 0.0 0.0 0.0 34.46413024517268" Properties=species:S:1:pos:R:3:initial_magmoms:R:1 pbc="T T T"
Si      -1.12702039       2.03631516       0.36945568       0.00000000
Si       1.58228191      -0.33813153       1.75122683       0.00000000
Si      -0.77023355      -0.77401935      -2.22603942       0.00000000
Si       0.97842790       2.42426151      -0.37765815       0.00000000
Si       1.00590913       0.17467767      -3.38686090       0.00000000
Si       0.00684343      -1.52234937       3.33817137       0.00000000
Si       0.72979363       2.42121528      -2.69471739       0.00000000
Si       3.38866372      -1.42550532       0.40936517       0.00000000
Si      -0.91770529      -3.38589279       1.88032953       0.00000000
Si      -2.49428149       0.64637091      -3.04614832       0.00000000
