10
Lattice="16.28999089631971 0.0 0.0 0.0 16.28999089631971 0.0 0.0 0.0 34.46413024517268" Properties=species:S:1:pos:R:3:initial_magmoms:R:1 pbc="T T T"
Si       0.08443107      -0.49771489      -2.31840334       0.00000000
Si       2.23599798       0.19934073       0.84426827       0.00000000
Si      -1.10162754       2.15477604       0.11045760       0.00000000
Si      -0.64156536      -2.12578703       1.04908871       0.00000000
Si      -0.59324922      -3.52594511      -0.89727413       0.00000000
Si      -2.16916011       2.03106978       2.27508190       0.00000000
Si       2.27014182      -0.88479624       2.94289373       0.00000000
Si       1.12791960      -2.68652141      -2.51646880       0.00000000
Si      -1.97379414      -1.02876074      -3.25355357       0.00000000
Si       0.38915181       3.87961011      -0.78195709       0.00000000
