10
Lattice="16.28999089631971 0.0 0.0 0.0 16.28999089631971 0.0 0.0 0.0 34.46413024517268" Properties=species:S:1:pos:R:3:initial_magmoms:R:1 pbc="T T T"
Si      -2.12444406       0.92903499      -0.14819584       0.00000000
Si       1.61173260       1.75187547      -0.17862769       0.00000000
Si       0.00407250      -1.59884721       1.82997741       0.00000000
Si      -0.23038947      -0.93646323      -2.29551914       0.00000000
Si      -3.37148917      -1.16159103      -0.02719221       0.00000000
Si       1.77122799      -0.07941375      -3.23545989       0.00000000
Si       3.33286884       0.78525945      -1.48709359       0.00000000
Si       2.41650747       2.06312850       1.97827665       0.00000000
Si      -2.20698549       2.29056948      -2.12485267       0.00000000
Si      -2.53167777       2.59517619       1.41385727       0.00000000
