10
Lattice="16.28999089631971 0.0 0.0 0.0 16.28999089631971 0.0 0.0 0.0 34.46413024517268" Properties=species:S:1:pos:R:3:initial_magmoms:R:1 pbc="T T T"
Si       1.38137571      -1.32372540       1.41144478       0.00000000
Si      -1.34490240       1.39745394       1.40113655       0.00000000
Si      -1.14223851      -1.53919323      -1.45029419       0.00000000
Si       1.41095835       1.23150771      -1.53897044       0.00000000
Si      -1.95229134       0.01751175      -3.06700744       0.00000000
Si       2.62290177       2.58650991       0.00263306       0.00000000
Si      -2.71388142      -2.67498090       0.06820800       0.00000000
Si       2.68175754      -2.76783390      -0.02444887       0.00000000
Si      -2.70977634       2.74603788      -0.16009631       0.00000000
Si       0.02751381      -2.68693776       2.78215983       0.00000000
