10
Lattice="16.28999089631971 0.0 0.0 0.0 16.28999089631971 0.0 0.0 0.0 34.46413024517268" Properties=species:S:1:pos:R:3:initial_magmoms:R:1 pbc="T T T"
Si       1.35725022       1.35738054      -1.35657785       0.00000000
Si      -1.35679410       1.35692442       1.35768071       0.00000000
Si       1.35902583      -1.35786924       1.35706035       0.00000000
Si      -1.35718506      -1.35883035      -1.35816320       0.00000000
Si      -2.71444505       2.71428867      -0.00006893       0.00000000
Si       0.00175932      -2.71480995       2.71405177       0.00000000
Si       2.71487511       0.00131949       2.71408624       0.00000000
Si      -2.71383744       0.00086337       2.71522355       0.00000000
Si      -0.00231318       2.71464705      -2.71443088       0.00000000
Si       0.00180819       2.71591767       2.71391392       0.00000000
