10
Lattice="16.28999089631971 0.0 0.0 0.0 16.28999089631971 0.0 0.0 0.0 34.46413024517268" Properties=species:S:1:pos:R:3:initial_magmoms:R:1 pbc="T T T"
Si      -1.35726651      -1.35694071       1.35699142       0.00000000
Si       1.35654975      -1.35754344      -1.35712928       0.00000000
Si       1.35584928       1.35918873       1.35702589       0.00000000
Si      -1.35902583       1.35786924      -1.35706035       0.00000000
Si       0.00407250       2.70814734       2.71467213       0.00000000
Si       2.71384884      -0.00083079      -2.71422409       0.00000000
Si       2.71423980       2.71412577      -0.00010339       0.00000000
Si       2.71383255      -2.71490769       0.00065482       0.00000000
Si      -0.00177561       2.71524978      -2.71363820       0.00000000
Si      -0.00188964      -2.71518462      -2.71405177       0.00000000
