10
Lattice="16.28999089631971 0.0 0.0 0.0 16.28999089631971 0.0 0.0 0.0 34.46413024517268" Properties=species:S:1:pos:R:3:initial_magmoms:R:1 pbc="T T T"
Si       1.35177678      -1.34895861      -1.35764624       0.00000000
Si      -1.33696917      -1.34789976       1.37453367       0.00000000
Si      -1.36129014       1.36563957      -1.35781856       0.00000000
Si       1.34998488       1.35980775       1.37980669       0.00000000
Si      -0.19318311       2.57593770       2.70584931       0.00000000
Si      -2.44250631       0.03906342       2.89809033       0.00000000
Si       2.71078632      -2.70827766       0.00203338       0.00000000
Si      -0.00407250      -2.70814734      -2.71467213       0.00000000
Si       2.71016730       0.00597843      -2.71477552       0.00000000
Si      -2.72150514      -2.70958086       0.00489391       0.00000000
