10
Lattice="16.28999089631971 0.0 0.0 0.0 16.28999089631971 0.0 0.0 0.0 34.46413024517268" Properties=species:S:1:pos:R:3:initial_magmoms:R:1 pbc="T T T"
Si      -0.35248139       2.31405966      -0.24648760       0.00000000
Si       0.68571778      -0.46551933       2.21497642       0.00000000
Si      -1.86756772      -1.13419125      -0.93297899       0.00000000
Si       2.06945554      -0.52864308      -1.16750753       0.00000000
Si       1.99927822       1.46096865       2.11282469       0.00000000
Si       2.05438729      -2.72501238      -0.38344813       0.00000000
Si       1.52017303       0.87047244      -2.98828301       0.00000000
Si       1.51458556       2.72671794      -1.55012852       0.00000000
Si       0.29783170       3.02572089       1.87347117       0.00000000
Si       2.23879009      -2.22415515       1.93981465       0.00000000
