10
Lattice="16.28999089631971 0.0 0.0 0.0 16.28999089631971 0.0 0.0 0.0 34.46413024517268" Properties=species:S:1:pos:R:3:initial_magmoms:R:1 pbc="T T T"
Si       2.20877739      -0.70345107      -0.05138605       0.00000000
Si      -0.75298896       2.15430363       0.60243333       0.00000000
Si      -1.09046889      -1.48905261       1.47789166       0.00000000
Si      -0.84359394      -0.23990283      -2.20687735       0.00000000
Si       1.53301932      -2.83340115      -0.93842433       0.00000000
Si      -0.53843337      -3.40423533       0.10708011       0.00000000
Si      -3.07006227       1.54105029       0.33409547       0.00000000
Si       3.14636463       1.32833547      -0.99522125       0.00000000
Si      -3.00656385       0.68846427      -1.85113840       0.00000000
Si      -3.18316374      -0.34150356       1.83942059       0.00000000
