10
Lattice="16.28999089631971 0.0 0.0 0.0 16.28999089631971 0.0 0.0 0.0 34.46413024517268" Properties=species:S:1:pos:R:3:initial_magmoms:R:1 pbc="T T T"
Si       1.09046889       1.48905261      -1.47789166       0.00000000
Si       0.63087912      -0.04592151       2.29286540       0.00000000
Si      -2.09269485       1.14754905       0.36152893       0.00000000
Si       0.55203552      -1.91518272      -1.37081155       0.00000000
Si       2.71365336      -1.64294424       1.47089544       0.00000000
Si      -1.29137346      -1.92982743      -2.84646304       0.00000000
Si      -3.61864431      -0.64904247       0.29887310       0.00000000
Si       3.29924628       0.78560154      -1.52927771       0.00000000
Si       0.33747993       3.64335624      -0.87545833       0.00000000
Si      -1.97959338       3.03010290      -1.14379619       0.00000000
