10
Lattice="16.28999089631971 0.0 0.0 0.0 16.28999089631971 0.0 0.0 0.0 34.46413024517268" Properties=species:S:1:pos:R:3:initial_magmoms:R:1 pbc="T T T"
Si       1.04920632       1.65915346       1.48023522       0.00000000
Si       1.67700663      -1.25661060      -1.29295703       0.00000000
Si      -1.67529618      -1.38927636       1.24181223       0.00000000
Si      -1.26757377       2.39520734      -1.20924361       0.00000000
Si      -0.94286520       2.95879247       1.28661563       0.00000000
Si      -2.08854090       0.57397882      -2.62389356       0.00000000
Si       1.42169346      -3.39141510      -0.02612383       0.00000000
Si       0.52422849      -2.45262240      -2.92645433       0.00000000
Si       1.75865211      -2.65129524       2.21252947       0.00000000
Si      -0.32508324      -2.17083798       3.19396506       0.00000000
