10
Lattice="16.28999089631971 0.0 0.0 0.0 16.28999089631971 0.0 0.0 0.0 34.46413024517268" Properties=species:S:1:pos:R:3:initial_magmoms:R:1 pbc="T T T"
Si       1.31356044       1.92648798      -0.10215174       0.00000000
Si       1.55307231      -1.75863582      -0.27516177       0.00000000
Si      -0.68571778       0.46551933      -2.21497642       0.00000000
Si      -1.65006297       0.41293521       1.68360817       0.00000000
Si       0.20225664      -3.22568783       0.88727953       0.00000000
Si      -0.38788608       3.49124022      -0.34150526       0.00000000
Si      -2.11185908      -2.86468479       0.06082922       0.00000000
Si      -2.16625139       2.70997182       1.05953135       0.00000000
Si       1.38373776      -0.06312375      -3.38248395       0.00000000
Si       1.36866951      -2.25949305      -2.59842455       0.00000000
