10
Lattice="16.28999089631971 0.0 0.0 0.0 16.28999089631971 0.0 0.0 0.0 34.46413024517268" Properties=species:S:1:pos:R:3:initial_magmoms:R:1 pbc="T T T"
Si      -2.08373535       0.48045726       0.98143559       0.00000000
Si       0.75984705      -2.09432385       0.76717197       0.00000000
Si      -0.33695865      -0.74011986      -2.23865330       0.00000000
Si       1.80434556       1.60671528       0.06465474       0.00000000
Si       1.09900485      -2.54172870      -1.59996368       0.00000000
Si      -1.29292101       1.90034253       2.67117837       0.00000000
Si       3.74362119       0.23441310      -0.35770341       0.00000000
Si      -0.08164548       1.39468464      -3.50548650       0.00000000
Si      -3.43394829       1.26201888      -0.97071723       0.00000000
Si      -1.06305282      -3.58925715       0.88824453       0.00000000
