10
Lattice="16.28999089631971 0.0 0.0 0.0 16.28999089631971 0.0 0.0 0.0 34.46413024517268" Properties=species:S:1:pos:R:3:initial_magmoms:R:1 pbc="T T T"
Si      -1.45585359       1.41843776       1.13928139       0.00000000
Si       2.30677803       0.40889529      -0.37293656       0.00000000
Si      -0.92271447       0.74890182      -2.08973371       0.00000000
Si      -0.88669728      -2.21825817       0.61397882       0.00000000
Si      -3.33819078       0.12755070       0.46044104       0.00000000
Si       2.35509417      -0.99126279      -2.31929941       0.00000000
Si       0.40935141      -0.46889136      -3.57855050       0.00000000
Si      -3.10712202      -0.06335181      -1.94181358       0.00000000
Si      -2.96461710      -1.85878674       1.60158349       0.00000000
Si      -1.44078534       3.61480706       0.35522199       0.00000000
