10
Lattice="16.28999089631971 0.0 0.0 0.0 16.28999089631971 0.0 0.0 0.0 34.46413024517268" Properties=species:S:1:pos:R:3:initial_magmoms:R:1 pbc="T T T"
Si      -1.23839838       1.29863228       1.50032782       0.00000000
Si       1.63940931      -1.26248591       1.20607291       0.00000000
Si      -1.45650519      -1.61653556      -1.05432726       0.00000000
Si       1.25467209       1.58647658      -1.33838078       0.00000000
Si      -2.24020080       2.54563178      -0.28446709       0.00000000
Si       0.19624563      -2.73777626       2.63960718       0.00000000
Si      -0.11161908       3.79443947      -0.53681359       0.00000000
Si      -2.59772395      -0.07518975       2.85951603       0.00000000
Si       3.35591919      -1.84909160      -0.50279748       0.00000000
Si       0.23250717       2.64203600       2.82033029       0.00000000
