10
Lattice="16.28999089631971 0.0 0.0 0.0 16.28999089631971 0.0 0.0 0.0 34.46413024517268" Properties=species:S:1:pos:R:3:initial_magmoms:R:1 pbc="T T T"
Si       0.56692458      -0.15521112      -2.24458113       0.00000000
Si      -0.01840770      -1.93198748       1.31515195       0.00000000
Si       1.67594778       1.48139631       0.84106310       0.00000000
Si      -2.26722591       0.77520852       0.02657186       0.00000000
Si      -1.57551993      -1.32765455      -2.51674452       0.00000000
Si       1.27439928       2.12698530      -2.52670466       0.00000000
Si       0.35870580       3.43961721       0.80584074       0.00000000
Si      -3.25251027      -0.79798846       1.54520014       0.00000000
Si       0.67753368      -1.15758206       3.43738534       0.00000000
Si      -2.03330151       3.01192326       0.87528600       0.00000000
