10
Lattice="16.28999089631971 0.0 0.0 0.0 16.28999089631971 0.0 0.0 0.0 34.46413024517268" Properties=species:S:1:pos:R:3:initial_magmoms:R:1 pbc="T T T"
Si      -0.03414384       1.08413697      -2.09862546       0.00000000
Si      -1.38385179      -1.93129583      -0.12782753       0.00000000
Si      -0.94718205       1.72436655       1.36340175       0.00000000
Si       2.29429989      -0.37983393       0.65871329       0.00000000
Si       0.55803024       3.29065005      -1.37215565       0.00000000
Si       0.60090552       3.48648843       0.98705324       0.00000000
Si      -2.91170718      -1.24099079      -1.89380502       0.00000000
Si      -2.01578976      -2.25530393       2.17113803       0.00000000
Si       1.90081494      -1.36306805       2.90815386       0.00000000
Si       1.74433320       0.02748775      -3.36911186       0.00000000
