10
Lattice="16.28999089631971 0.0 0.0 0.0 16.28999089631971 0.0 0.0 0.0 34.46413024517268" Properties=species:S:1:pos:R:3:initial_magmoms:R:1 pbc="T T T"
Si       1.65006297      -0.41293521      -1.68360817       0.00000000
Si      -1.66987880      -1.70623089      -0.18534820       0.00000000
Si      -0.51618842       2.29703661      -0.62407682       0.00000000
Si       1.31725827       0.52659054       2.29059077       0.00000000
Si      -0.46179611      -3.27762000      -1.62277894       0.00000000
Si       2.96362341       1.51355277      -1.78575991       0.00000000
Si      -3.76190576      -0.45440955      -0.04052984       0.00000000
Si       1.26217689       3.07830501      -2.02511342       0.00000000
Si      -0.67846940       3.64094532       1.54551032       0.00000000
Si       0.96434519       0.05258412      -3.89858459       0.00000000
