10
Lattice="16.28999089631971 0.0 0.0 0.0 16.28999089631971 0.0 0.0 0.0 34.46413024517268" Properties=species:S:1:pos:R:3:initial_magmoms:R:1 pbc="T T T"
Si      -2.22223293       0.38840247      -0.68183873       0.00000000
Si       0.35662068      -0.58919301       2.34583680       0.00000000
Si       0.86701896       2.19336705       0.96017121       0.00000000
Si      -0.52854534       1.16660835      -2.21311536       0.00000000
Si       1.40230836       2.03499567      -1.28268672       0.00000000
Si       2.47909365       0.54092574       1.47451417       0.00000000
Si      -1.15163784       1.48825440       2.59170404       0.00000000
Si       1.02328893      -2.73118140       1.32869636       0.00000000
Si       1.17701766      -3.15807714      -0.93928593       0.00000000
Si       2.31754572      -1.53171612      -2.17761729       0.00000000
