10
Lattice="16.28999089631971 0.0 0.0 0.0 16.28999089631971 0.0 0.0 0.0 34.46413024517268" Properties=species:S:1:pos:R:3:initial_magmoms:R:1 pbc="T T T"
Si      -0.23392440      -2.23671474      -0.84871415       0.00000000
Si      -0.96239691       1.41522633      -1.71541858       0.00000000
Si       2.39200731       0.42769395      -0.06944526       0.00000000
Si      -0.91448802       0.56741328       2.20636039       0.00000000
Si      -2.68353315       2.38184235      -0.40695268       0.00000000
Si      -1.87875828       2.69309538       1.74995166       0.00000000
Si       2.03330151      -3.01192326      -0.87528600       0.00000000
Si       2.64103254       1.25705043      -2.38485022       0.00000000
Si       3.70924929      -1.53052695      -0.03422290       0.00000000
Si       0.75730581       1.16372502       3.77878721       0.00000000
