10
Lattice="16.28999089631971 0.0 0.0 0.0 16.28999089631971 0.0 0.0 0.0 34.46413024517268" Properties=species:S:1:pos:R:3:initial_magmoms:R:1 pbc="T T T"
Si       0.35210835       0.10743255      -2.31457782       0.00000000
Si      -0.10783980       2.17375389       0.95103821       0.00000000
Si       1.89408717      -1.34969166       0.52650881       0.00000000
Si      -2.12130009      -1.10131803       0.46809208       0.00000000
Si      -2.44631817       2.35439370       0.72795177       0.00000000
Si       0.88462845      -3.45093876       0.72057644       0.00000000
Si      -1.35407367      -3.17138607       1.24836042       0.00000000
Si      -1.02607452       1.84119354      -3.05273097       0.00000000
Si      -2.88605043       1.91425419      -1.57187539       0.00000000
Si      -3.28310289       0.48242835       1.87416045       0.00000000
