10
Lattice="16.28999089631971 0.0 0.0 0.0 16.28999089631971 0.0 0.0 0.0 34.46413024517268" Properties=species:S:1:pos:R:3:initial_magmoms:R:1 pbc="T T T"
Si       0.92251899       1.75930371      -1.24765877       0.00000000
Si      -1.38910222       1.29652110       1.44148029       0.00000000
Si       1.34905635      -1.40864517       1.44504732       0.00000000
Si      -1.14483025      -1.32317154      -1.76031300       0.00000000
Si      -2.63204765      -2.54550798      -0.07951224       0.00000000
Si      -2.72639933       2.58624927      -0.16868823       0.00000000
Si       2.67843438       2.66848119       0.10862066       0.00000000
Si      -0.86634455       3.40058637      -1.55563041       0.00000000
Si      -0.01387908       2.65986378       2.82312391       0.00000000
Si       2.70278793      -0.05807385       2.82619122       0.00000000
