10
Lattice="16.28999089631971 0.0 0.0 0.0 16.28999089631971 0.0 0.0 0.0 34.46413024517268" Properties=species:S:1:pos:R:3:initial_magmoms:R:1 pbc="T T T"
Si       1.70833230      -1.65402144       0.23768101       0.00000000
Si      -1.90638612      -0.88809822       1.19830266       0.00000000
Si       0.76975137       1.91694204       1.29988230       0.00000000
Si       0.78079599       0.21155823      -2.32595099       0.00000000
Si       2.12879349       0.58614678       2.70866300       0.00000000
Si      -0.60328386      -2.15660052       2.71129606       0.00000000
Si       3.56918787      -0.56187468       1.17607329       0.00000000
Si      -1.18397349       0.92898612      -3.48966746       0.00000000
Si       0.76865994      -3.53863435       1.33771015       0.00000000
Si       2.08041219       2.42579277      -2.22945137       0.00000000
