10
Lattice="16.28999089631971 0.0 0.0 0.0 16.28999089631971 0.0 0.0 0.0 34.46413024517268" Properties=species:S:1:pos:R:3:initial_magmoms:R:1 pbc="T T T"
Si      -1.35386190      -1.36321236       1.37071505       0.00000000
Si       1.36334268       1.35244467       1.37795252       0.00000000
Si      -1.38137571       1.32372540      -1.41144478       0.00000000
Si       1.30038183      -1.44410850      -1.43589365       0.00000000
Si       2.69772174       2.68936497       0.00704792       0.00000000
Si      -2.52361422      -0.21546783      -2.86173897       0.00000000
Si       2.70477531      -2.73088818       0.00489736       0.00000000
Si       0.00004887       2.70884781       2.73277270       0.00000000
Si      -2.70673011      -2.73486294      -0.01041851       0.00000000
Si       2.71362078      -0.00358380       2.73346198       0.00000000
