10
Lattice="16.28999089631971 0.0 0.0 0.0 16.28999089631971 0.0 0.0 0.0 34.46413024517268" Properties=species:S:1:pos:R:3:initial_magmoms:R:1 pbc="T T T"
Si       1.49415138      -1.20816414       1.35888006       0.00000000
Si      -1.26416916       1.49421654       1.37500239       0.00000000
Si      -0.85426389      -1.74257388      -1.41045018       0.00000000
Si       0.89699256       1.76998995      -1.39918041       0.00000000
Si      -1.22238531      -0.53511021      -3.42749900       0.00000000
Si      -2.66150907      -2.63925693      -0.06793918       0.00000000
Si       0.11306889      -2.55801870       2.73832487       0.00000000
Si      -2.59854822       0.15729624       2.74590699       0.00000000
Si      -2.72036484       2.71508688      -0.04085725       0.00000000
Si       2.65554693       2.79572238      -0.03857917       0.00000000
