10
Lattice="16.28999089631971 0.0 0.0 0.0 16.28999089631971 0.0 0.0 0.0 34.46413024517268" Properties=species:S:1:pos:R:3:initial_magmoms:R:1 pbc="T T T"
Si      -2.27595735      -0.26793792      -0.33485368       0.00000000
Si       0.31509747       0.53686953      -2.50678438       0.00000000
Si       0.30752262      -2.46558924       0.96551315       0.00000000
Si       0.36865899       2.50820388       0.90740659       0.00000000
Si       2.32617942      -1.76047659      -0.66601969       0.00000000
Si      -2.61511515       0.17946693       2.03228197       0.00000000
Si       2.36693700       2.83392243      -0.54191429       0.00000000
Si      -2.45661345      -1.83247839      -2.16931143       0.00000000
Si       1.02727998      -1.69385049       3.36246028       0.00000000
Si       1.63352862       2.20032288       2.88044469       0.00000000
