10
Lattice="16.28999089631971 0.0 0.0 0.0 16.28999089631971 0.0 0.0 0.0 34.46413024517268" Properties=species:S:1:pos:R:3:initial_magmoms:R:1 pbc="T T T"
Si       1.47911571      -1.67655051       0.64620280       0.00000000
Si      -0.42375177      -0.28163781      -2.29486432       0.00000000
Si      -2.07145269      -0.57083418       1.04550444       0.00000000
Si       0.67575807       2.12995008       0.88703828       0.00000000
Si      -1.53301932       2.83340115       0.93842433       0.00000000
Si      -2.68123626       0.43171758      -2.13570888       0.00000000
Si       3.53530467      -0.47237742       0.48408344       0.00000000
Si       1.64340036       1.44363609       2.97804716       0.00000000
Si      -2.37661326       2.59349832      -1.26845302       0.00000000
Si      -2.62348821       1.34434854       2.41631599       0.00000000
