10
Lattice="16.28999089631971 0.0 0.0 0.0 16.28999089631971 0.0 0.0 0.0 34.46413024517268" Properties=species:S:1:pos:R:3:initial_magmoms:R:1 pbc="T T T"
Si      -0.36812142       1.20746367      -2.01704881       0.00000000
Si       0.85426389       1.74257388       1.41045018       0.00000000
Si      -1.80724518      -0.89668305       1.34251101       0.00000000
Si       1.81356570      -1.84581990      -0.03953038       0.00000000
Si      -0.56325933      -0.68722623      -3.38169128       0.00000000
Si      -0.40285170      -2.18346273       2.78330201       0.00000000
Si       2.34841527       0.53440974       2.76933024       0.00000000
Si       1.69562610       2.40730362      -2.35186803       0.00000000
Si      -2.99481876      -2.28397203      -0.19258567       0.00000000
Si       0.97718823      -3.53900250       1.37084398       0.00000000
