10
Lattice="16.28999089631971 0.0 0.0 0.0 16.28999089631971 0.0 0.0 0.0 34.46413024517268" Properties=species:S:1:pos:R:3:initial_magmoms:R:1 pbc="T T T"
Si       1.45619568      -1.22087034       1.41585964       0.00000000
Si      -1.21194342      -1.35500220      -1.54160350       0.00000000
Si      -1.24419762       1.50611192       1.41276476       0.00000000
Si       1.78657317       1.05557571      -1.23371247       0.00000000
Si       0.27104931       2.15073027      -2.85654866       0.00000000
Si      -2.62290177      -2.58650991      -0.00263306       0.00000000
Si       0.12181662      -2.55779064       2.78676424       0.00000000
Si      -2.59856451       0.15776865       2.78266300       0.00000000
Si      -2.53671138       2.86418015      -0.03069033       0.00000000
Si       2.72036484      -2.71508688       0.04085725       0.00000000
