10
Lattice="16.28999089631971 0.0 0.0 0.0 16.28999089631971 0.0 0.0 0.0 34.46413024517268" Properties=species:S:1:pos:R:3:initial_magmoms:R:1 pbc="T T T"
Si       2.23806681      -0.72123975      -0.00403231       0.00000000
Si      -0.50280714       1.88766891       1.41875118       0.00000000
Si      -0.93758724      -2.03178654       0.94383520       0.00000000
Si      -0.87775407       0.91184904      -2.09018174       0.00000000
Si      -3.14636463      -1.32833547       0.99522125       0.00000000
Si       2.28436299      -2.85149934      -1.08668910       0.00000000
Si      -2.68188786       2.64684807       0.67942624       0.00000000
Si      -2.51514342      -0.64229841      -2.83429719       0.00000000
Si       3.64374720       1.04192469      -0.71271861       0.00000000
Si      -2.04994989       2.97085617      -1.61953931       0.00000000
