10
Lattice="16.28999089631971 0.0 0.0 0.0 16.28999089631971 0.0 0.0 0.0 34.46413024517268" Properties=species:S:1:pos:R:3:initial_magmoms:R:1 pbc="T T T"
Si       1.18338705      -1.43322947      -1.42759813       0.00000000
Si       1.35325917       1.36019995       1.35120145       0.00000000
Si      -1.36212093      -1.35169802       1.35158055       0.00000000
Si      -1.35032697       1.32388628      -1.39079731       0.00000000
Si       2.06711955       0.41653165      -2.67064831       0.00000000
Si      -2.40595155      -0.45828926      -2.66358868       0.00000000
Si      -0.57516732      -2.45896190      -2.78819936       0.00000000
Si       2.71181970       0.00300419       2.71208732       0.00000000
Si      -0.00360009      -2.71388411       2.71157035       0.00000000
Si      -2.72227077       2.70592011      -0.01721140       0.00000000
