10
Lattice="16.28999089631971 0.0 0.0 0.0 16.28999089631971 0.0 0.0 0.0 34.46413024517268" Properties=species:S:1:pos:R:3:initial_magmoms:R:1 pbc="T T T"
Si      -1.58022774       1.77028317      -0.15253833       0.00000000
Si      -0.66139029      -1.08424611       2.02476878       0.00000000
Si      -0.80369973      -1.86323391      -1.31511748       0.00000000
Si       2.11919868       0.48325914       1.23312727       0.00000000
Si       2.01073986       0.89355537      -1.22106482       0.00000000
Si       0.92488104       2.06389413       2.52101807       0.00000000
Si      -2.12178227      -0.47223081      -2.66469911       0.00000000
Si       0.63091170       2.25996057      -2.64374491       0.00000000
Si      -0.94341906       0.83178369       3.31276298       0.00000000
Si      -3.43068198       0.84914883      -1.24315634       0.00000000
