10
Lattice="16.28999089631971 0.0 0.0 0.0 16.28999089631971 0.0 0.0 0.0 34.46413024517268" Properties=species:S:1:pos:R:3:initial_magmoms:R:1 pbc="T T T"
Si       1.35743240       1.35806472      -1.35540607       0.00000000
Si      -1.35760860       1.35697329       1.35799088       0.00000000
Si      -1.35769005      -1.35876519      -1.35612982       0.00000000
Si       1.35760722      -1.35777150       1.35785303       0.00000000
Si      -0.00076563       2.71319724       2.71505123       0.00000000
Si      -0.00017919      -2.71427890       2.71484445       0.00000000
Si       2.71454835       2.71479366       0.00044803       0.00000000
Si       2.71472754       0.00143352       2.71463766       0.00000000
Si      -2.71467963       2.71482624       0.00044803       0.00000000
Si       2.71220259      -0.00024435      -2.71753265       0.00000000
