10
Lattice="16.28999089631971 0.0 0.0 0.0 16.28999089631971 0.0 0.0 0.0 34.46413024517268" Properties=species:S:1:pos:R:3:initial_magmoms:R:1 pbc="T T T"
Si       2.23838772       0.71967591       0.46130264       0.00000000
Si      -0.80522677      -0.07804539       2.29562253       0.00000000
Si       0.97893289      -1.70740377      -1.48578395       0.00000000
Si      -1.76535937       1.31937597      -1.20145472       0.00000000
Si       2.09607828      -0.05931189      -2.87858362       0.00000000
Si      -1.46101330       2.15959788       2.56892324       0.00000000
Si       1.95635895       2.63570571       1.74929684       0.00000000
Si      -2.65580335      -1.48592493       2.18885260       0.00000000
Si       2.89977801       1.80392202      -1.56346614       0.00000000
Si      -3.06787519       2.10233853       0.84630166       0.00000000
