10
Lattice="16.28999089631971 0.0 0.0 0.0 16.28999089631971 0.0 0.0 0.0 34.46413024517268" Properties=species:S:1:pos:R:3:initial_magmoms:R:1 pbc="T T T"
Si      -1.35684297      -1.35622395      -1.35706035       0.00000000
Si       1.36013078      -1.35767376       1.35606089       0.00000000
Si       1.35824032       1.35889551      -1.35699142       0.00000000
Si      -1.35599589       1.35796698       1.36188533       0.00000000
Si       0.02586852       2.70145215       2.70981268       0.00000000
Si       2.70363242      -0.01275507       2.71074322       0.00000000
Si       2.71549317      -2.71176372      -0.00041357       0.00000000
Si       0.00076563      -2.71319724      -2.71505123       0.00000000
Si      -2.71391400       0.00162900      -2.71460320       0.00000000
Si      -2.71485882      -2.71406061      -0.00003446       0.00000000
