10
Lattice="16.28999089631971 0.0 0.0 0.0 16.28999089631971 0.0 0.0 0.0 34.46413024517268" Properties=species:S:1:pos:R:3:initial_magmoms:R:1 pbc="T T T"
Si      -1.35635427      -1.35576783      -1.37167315       0.00000000
Si       1.35996788       1.35672894      -1.37480939       0.00000000
Si      -1.30394934       1.39965309       1.40220839       0.00000000
Si       1.29771027      -1.48882455       1.36116158       0.00000000
Si      -2.44447740      -0.22670793       2.64053974       0.00000000
Si       2.70346952       2.70164763      -0.02012706       0.00000000
Si      -2.69239491      -2.72780285      -0.02315991       0.00000000
Si       0.00042354      -2.71307344      -2.73107706       0.00000000
Si      -0.00016290       2.71440270      -2.73087028       0.00000000
Si      -2.71502172       0.00034209      -2.73090474       0.00000000
