10
Lattice="16.28999089631971 0.0 0.0 0.0 16.28999089631971 0.0 0.0 0.0 34.46413024517268" Properties=species:S:1:pos:R:3:initial_magmoms:R:1 pbc="T T T"
Si       1.23445540       1.33369488      -1.60516776       0.00000000
Si       1.76535937      -1.31937597       1.20145472       0.00000000
Si      -1.46406375      -1.28967930      -1.60437509       0.00000000
Si      -1.30251582       0.78296256       2.04775637       0.00000000
Si      -2.37930111       2.27703249      -0.70944452       0.00000000
Si      -3.78160947       0.24203682       0.57324220       0.00000000
Si       3.08490965       2.25482922      -0.51454975       0.00000000
Si       0.30434607       0.84022191       3.77037796       0.00000000
Si       0.96013260      -1.39742136       3.49707725       0.00000000
Si      -2.60459181      -2.91604032      -0.36604373       0.00000000
