10
Lattice="16.28999089631971 0.0 0.0 0.0 16.28999089631971 0.0 0.0 0.0 34.46413024517268" Properties=species:S:1:pos:R:3:initial_magmoms:R:1 pbc="T T T"
Si      -0.96242949       0.72381357       1.97379631       0.00000000
Si       0.65578653      -2.23764327      -0.27330071       0.00000000
Si      -1.60686189      -0.05725935      -1.72262158       0.00000000
Si       1.48542387       1.75975983      -0.80108469       0.00000000
Si      -1.41182172       2.79733509       0.86367159       0.00000000
Si       3.41737226       0.47610783      -0.81962640       0.00000000
Si       0.83761551       0.61703262       3.45851187       0.00000000
Si       1.46101330      -2.15959788      -2.56892324       0.00000000
Si       3.49991369      -0.88542666       1.15703043       0.00000000
Si      -1.19479005      -3.64552281      -0.38007064       0.00000000
