10
Lattice="16.28999089631971 0.0 0.0 0.0 16.28999089631971 0.0 0.0 0.0 34.46413024517268" Properties=species:S:1:pos:R:3:initial_magmoms:R:1 pbc="T T T"
Si      -2.37118869       0.24488757       0.30380148       0.00000000
Si       1.00056342       2.22246099      -0.37231621       0.00000000
Si       0.16228098      -1.34390871      -2.16958714       0.00000000
Si       0.60480439      -1.52044344       2.02852538       0.00000000
Si       1.99572767      -3.11435478       0.74508045       0.00000000
Si      -3.04530147       1.78087167      -1.36126498       0.00000000
Si       3.18216095       1.83948309      -1.18225818       0.00000000
Si      -2.84547204       1.42921944       2.42276078       0.00000000
Si       0.88329008       3.20331447       2.23320796       0.00000000
Si       2.67215363       1.56203181       2.54117960       0.00000000
