10
Lattice="16.28999089631971 0.0 0.0 0.0 16.28999089631971 0.0 0.0 0.0 34.46413024517268" Properties=species:S:1:pos:R:3:initial_magmoms:R:1 pbc="T T T"
Si      -1.49415138       1.20816414      -1.35888006       0.00000000
Si       1.33359714       1.36604682       1.38078892       0.00000000
Si      -1.38108249      -1.34985456       1.37944482       0.00000000
Si       1.33385778      -1.42047171      -1.61147126       0.00000000
Si      -2.34841527      -0.53440974      -2.76933024       0.00000000
Si      -0.53484957      -2.38022964      -2.80886062       0.00000000
Si       2.67115489      -2.71019988      -0.00130274       0.00000000
Si       2.69329081       2.71057455      -0.01425437       0.00000000
Si       2.68846430       0.00904095       2.74167479       0.00000000
Si      -0.02453274      -2.70723510       2.74270871       0.00000000
