10
Lattice="16.28999089631971 0.0 0.0 0.0 16.28999089631971 0.0 0.0 0.0 34.46413024517268" Properties=species:S:1:pos:R:3:initial_magmoms:R:1 pbc="T T T"
Si       0.92822049       1.83897810      -1.02613559       0.00000000
Si      -0.53528940       0.15837138       2.24285792       0.00000000
Si      -1.93085370      -0.86838732      -0.93042864       0.00000000
Si      -1.40230836      -2.03499567       1.28268672       0.00000000
Si      -0.51082182      -2.24733582      -2.29948252       0.00000000
Si       2.24489232       0.44948997      -2.31819655       0.00000000
Si       1.07678529      -1.49406993       2.75720089       0.00000000
Si       2.37930111      -2.27703249       0.70944452       0.00000000
Si      -2.54637135       2.45571750       0.40209323       0.00000000
Si       0.91523736      -3.56671179      -0.89493057       0.00000000
