10
Lattice="16.28999089631971 0.0 0.0 0.0 16.28999089631971 0.0 0.0 0.0 34.46413024517268" Properties=species:S:1:pos:R:3:initial_magmoms:R:1 pbc="T T T"
Si      -0.90070668      -1.86903315       1.17085055       0.00000000
Si       2.37490281       0.28399986       0.37931243       0.00000000
Si      -1.44682893       1.92068874       0.31937927       0.00000000
Si      -0.43152210      -0.31524408      -2.37616525       0.00000000
Si       3.03718905       1.50418602      -1.51452705       0.00000000
Si      -2.83411791       1.84060710      -1.67626730       0.00000000
Si      -3.23918505      -1.68839334       0.94776411       0.00000000
Si       0.11497482       3.78038772       0.19168960       0.00000000
Si       0.24549030      -1.96848360       3.24535110       0.00000000
Si       3.39084495      -1.80118530       0.63889640       0.00000000
