10
Lattice="16.28999089631971 0.0 0.0 0.0 16.28999089631971 0.0 0.0 0.0 34.46413024517268" Properties=species:S:1:pos:R:3:initial_magmoms:R:1 pbc="T T T"
Si      -0.66228624      -1.22018616       1.89383948       0.00000000
Si       2.32990073       0.26415864       0.24507457       0.00000000
Si      -0.18744903      -0.83210949      -2.20094952       0.00000000
Si      -1.28933721       2.04219585      -0.06958312       0.00000000
Si       2.22222383       2.56774383       0.89217344       0.00000000
Si      -3.03718905      -1.50418602       1.51452705       0.00000000
Si       0.43531767       3.71238579      -0.25083008       0.00000000
Si       3.35318966      -0.77353065      -1.64173423       0.00000000
Si      -1.75011615      -2.57025249      -2.24623541       0.00000000
Si       0.35365590      -3.30537132       2.15342345       0.00000000
