10
Lattice="16.28999089631971 0.0 0.0 0.0 16.28999089631971 0.0 0.0 0.0 34.46413024517268" Properties=species:S:1:pos:R:3:initial_magmoms:R:1 pbc="T T T"
Si      -1.63346346       0.06621885      -1.73244387       0.00000000
Si       1.72465488       1.67018994      -0.18124696       0.00000000
Si       1.28933721      -2.04219585       0.06958312       0.00000000
Si      -1.63287702       0.23400585       1.77579977       0.00000000
Si       3.51156104       0.52554798       0.96175656       0.00000000
Si      -2.70848943       2.26627362       1.05532672       0.00000000
Si       1.10188818      -2.87430534      -2.13136640       0.00000000
Si       0.62705097      -3.26238201       1.96342260       0.00000000
Si      -3.40443081       1.49186819      -1.06690668       0.00000000
Si      -2.96054460      -1.85380200      -1.73082405       0.00000000
