10
Lattice="16.28999089631971 0.0 0.0 0.0 16.28999089631971 0.0 0.0 0.0 34.46413024517268" Properties=species:S:1:pos:R:3:initial_magmoms:R:1 pbc="T T T"
Si       0.76988006       0.32268861      -2.20518861       0.00000000
Si      -1.58621824       1.75303206       0.05869245       0.00000000
Si      -1.26260110      -1.93979691       0.61473703       0.00000000
Si       2.19458391       0.02135619       0.99511785       0.00000000
Si       1.80274425      -1.81525986      -2.63213049       0.00000000
Si       2.18899644       1.87760169       2.43327235       0.00000000
Si      -1.19315683      -1.98330750       3.05042187       0.00000000
Si      -3.56569759      -1.56761928       0.15774241       0.00000000
Si       2.01692517       2.41331463      -2.32619224       0.00000000
Si      -0.64537300       3.91577391      -0.02471080       0.00000000
