10
Lattice="16.28999089631971 0.0 0.0 0.0 16.28999089631971 0.0 0.0 0.0 34.46413024517268" Properties=species:S:1:pos:R:3:initial_magmoms:R:1 pbc="T T T"
Si       0.46398807       1.95064605      -1.14152156       0.00000000
Si      -1.86706695      -0.41265828       1.30364092       0.00000000
Si       0.00558747      -1.85624550      -1.43815449       0.00000000
Si       1.56252051      -0.53320428       1.69343045       0.00000000
Si       0.55486998      -3.25536102       0.38262099       0.00000000
Si      -1.51458556      -2.72671794       1.55012852       0.00000000
Si      -1.21675386       0.29900295       3.42359968       0.00000000
Si       2.77483860      -2.30441598       0.88045563       0.00000000
Si      -2.18899644      -1.87760169      -2.43327235       0.00000000
Si      -0.66622842       3.76665525      -0.15963794       0.00000000
