10
Lattice="16.28999089631971 0.0 0.0 0.0 16.28999089631971 0.0 0.0 0.0 34.46413024517268" Properties=species:S:1:pos:R:3:initial_magmoms:R:1 pbc="T T T"
Si      -1.35643100      -1.35795069       1.35778410       0.00000000
Si      -1.35486716       1.35700587      -1.36088587       0.00000000
Si       1.35870217       1.35720135       1.35764624       0.00000000
Si       1.35791373      -1.35589815      -1.36133391       0.00000000
Si      -2.71405589       2.71419093       0.00003446       0.00000000
Si      -2.71299704      -2.71627605       0.00103392       0.00000000
Si      -2.71403960      -0.00042354       2.71525802       0.00000000
Si       2.71612506       2.71360449       0.00034464       0.00000000
Si      -2.68846430      -0.00904095      -2.74167479       0.00000000
Si       0.00119030      -2.71524978       2.71529248       0.00000000
