10
Lattice="16.28999089631971 0.0 0.0 0.0 16.28999089631971 0.0 0.0 0.0 34.46413024517268" Properties=species:S:1:pos:R:3:initial_magmoms:R:1 pbc="T T T"
Si       1.33341143       1.35195597      -1.39579805       0.00000000
Si      -1.37695685      -1.36969578      -1.39562573       0.00000000
Si      -1.31389406       1.43894457       1.44942427       0.00000000
Si       1.61312702      -1.33266861       1.49819104       0.00000000
Si      -2.42614856      -0.34114518       2.59966526       0.00000000
Si       2.67300329       2.72497491      -0.01475066       0.00000000
Si      -2.73997541       2.68996770      -0.03087988       0.00000000
Si       2.71866416      -2.71963179      -0.02536561       0.00000000
Si      -2.71179371      -2.73761595      -0.04725035       0.00000000
Si       2.69434319      -0.00609246      -2.75771785       0.00000000
