10
Lattice="16.28999089631971 0.0 0.0 0.0 16.28999089631971 0.0 0.0 0.0 34.46413024517268" Properties=species:S:1:pos:R:3:initial_magmoms:R:1 pbc="T T T"
Si       1.32698177      -1.41486795      -1.29671363       0.00000000
Si       0.03184206      -1.06971543       2.18712939       0.00000000
Si      -1.60669152       1.45329606      -1.16288933       0.00000000
Si       1.57843421       1.89952803       0.83568670       0.00000000
Si       0.71557572       1.05443541       2.86266119       0.00000000
Si      -2.76839658       1.65799620       0.87218423       0.00000000
Si       2.43258407       0.46177263      -2.26436355       0.00000000
Si      -0.52347247      -2.33600229      -2.38733164       0.00000000
Si       3.50322803       0.85525758      -0.02360794       0.00000000
Si       1.96379045      -2.35336743       2.16858768       0.00000000
