10
Lattice="16.28999089631971 0.0 0.0 0.0 16.28999089631971 0.0 0.0 0.0 34.46413024517268" Properties=species:S:1:pos:R:3:initial_magmoms:R:1 pbc="T T T"
Si       0.85375890       1.41016014       1.62632875       0.00000000
Si       1.91135457      -0.97989237      -0.92095100       0.00000000
Si      -0.92142756      -2.02474926       0.82531299       0.00000000
Si      -1.25898894       1.26148131      -1.57656252       0.00000000
Si       0.70354881      -1.77544710      -2.78959719       0.00000000
Si      -1.22416092       1.76963157       2.61393342       0.00000000
Si      -0.23570001       0.22379202      -3.46337131       0.00000000
Si       1.47211101      -0.26371881       3.16901301       0.00000000
Si      -0.44134497      -1.76712291       3.10335881       0.00000000
Si       0.20878893      -3.84075846      -0.15657063       0.00000000
