10
Lattice="16.28999089631971 0.0 0.0 0.0 16.28999089631971 0.0 0.0 0.0 34.46413024517268" Properties=species:S:1:pos:R:3:initial_magmoms:R:1 pbc="T T T"
Si      -1.42863041       1.23781846       1.37763545       0.00000000
Si      -1.36558811      -1.34488678      -1.35695696       0.00000000
Si       1.34593844       1.36882264      -1.35644000       0.00000000
Si       1.26083948      -1.17907020       1.65117740       0.00000000
Si       0.17806599       2.38919566       2.73872810       0.00000000
Si      -0.67417142      -1.98832549       3.01630236       0.00000000
Si       2.08180661       0.64215832       3.06582735       0.00000000
Si      -2.54742761      -0.50726897       2.75654607       0.00000000
Si       2.68416194      -2.68490218       0.02791596       0.00000000
Si       2.70278141       0.01136716      -2.71425856       0.00000000
