10
Lattice="10.86 0.0 0.0 0.0 10.86 0.0 0.0 0.0 10.86" Properties=species:S:1:pos:R:3:initial_magmoms:R:1 pbc="T T T"
Si       1.35750000       1.35750000       1.35750000       0.00000000
Si      -1.35750000       1.35750000      -1.35750000       0.00000000
Si      -1.35750000      -1.35750000       1.35750000       0.00000000
Si       1.35750000      -1.35750000      -1.35750000       0.00000000
Si      -0.06644148       2.55875718       2.62397148       0.00000000
Si       2.63596092      -2.62903224       0.04352688       0.00000000
Si      -2.62147368      -2.72506722      -0.14284158       0.00000000
Si      -0.18559740      -2.67192924       2.67607776       0.00000000
Si      -0.18520644       2.65990722      -2.69164014       0.00000000
Si       2.71500000       0.00000000       2.71500000       0.00000000
