10
Lattice="10.86 0.0 0.0 0.0 10.86 0.0 0.0 0.0 10.86" Properties=species:S:1:pos:R:3:initial_magmoms:R:1 pbc="T T T"
Si       1.42394148      -1.20125718      -1.26647148       0.00000000
Si      -1.29105852      -1.20125718       1.44852852       0.00000000
Si      -1.60256676       1.25642598      -1.04542704       0.00000000
Si       1.42394148       1.51374282       1.44852852       0.00000000
Si       0.06644148      -2.55875718      -2.62397148       0.00000000
Si      -2.64855852      -2.55875718       0.09102852       0.00000000
Si       2.78144148      -2.55875718       0.09102852       0.00000000
Si       0.06644148      -2.55875718       2.80602852       0.00000000
Si      -2.73614442       0.24702156      -2.68408158       0.00000000
Si      -2.64855852       0.15624282       2.80602852       0.00000000
