10
Lattice="10.86 0.0 0.0 0.0 10.86 0.0 0.0 0.0 10.86" Properties=species:S:1:pos:R:3:initial_magmoms:R:1 pbc="T T T"
Si       1.06494246       1.56695682       1.08603258       0.00000000
Si       1.06494246      -1.14804318      -1.62896742       0.00000000
Si      -1.65005754      -1.14804318       1.08603258       0.00000000
Si       2.42244246       0.20945682       2.44353258       0.00000000
Si       2.42244246      -2.50554318      -0.27146742       0.00000000
Si      -0.29255754      -2.50554318       2.44353258       0.00000000
Si       2.42244246       2.92445682      -0.27146742       0.00000000
Si      -0.29255754       2.92445682       2.44353258       0.00000000
Si       2.42244246       0.20945682      -2.98646742       0.00000000
Si      -3.00755754       0.20945682       2.44353258       0.00000000
