10
Lattice="10.86 0.0 0.0 0.0 10.86 0.0 0.0 0.0 10.86" Properties=species:S:1:pos:R:3:initial_magmoms:R:1 pbc="T T T"
Si      -1.27846092       1.27153224      -1.40102688       0.00000000
Si       1.43653908       1.27153224       1.31397312       0.00000000
Si       1.43653908      -1.44346776      -1.40102688       0.00000000
Si      -2.63596092       2.62903224      -0.04352688       0.00000000
Si       0.07903908       2.62903224       2.67147312       0.00000000
Si       0.07903908       2.62903224      -2.75852688       0.00000000
Si       2.79403908       2.62903224      -0.04352688       0.00000000
Si      -2.82155832      -0.04289700       2.63255088       0.00000000
Si       2.79403908      -0.08596776       2.67147312       0.00000000
Si       2.79403908      -0.08596776      -2.75852688       0.00000000
