10
Lattice="16.290000149 0.0 0.0 0.0 16.290000149 0.0 0.0 0.0 29.1751946751" Properties=species:S:1:pos:R:3:initial_magmoms:R:1 pbc="T T T"
Si      -1.33499809      -1.36396334       1.36919189       0.00000000
Si       1.34881201      -1.34936913      -1.37482270       0.00000000
Si       1.36054081       1.34568433       1.36732467       0.00000000
Si      -1.37002159       1.34399017      -1.36335685       0.00000000
Si      -2.69241122      -2.70583418      -0.01371234       0.00000000
Si       2.71440272       2.69612534      -0.00338432       0.00000000
Si      -0.00825903       2.73395072       2.67799112       0.00000000
Si       2.72155403      -2.69695613      -0.03897806       0.00000000
Si      -0.01959687       2.70886412      -2.71924484       0.00000000
Si      -2.75936313      -0.00094482       2.66818825       0.00000000
