10
Lattice="16.290000149 0.0 0.0 0.0 16.290000149 0.0 0.0 0.0 29.1751946751" Properties=species:S:1:pos:R:3:initial_magmoms:R:1 pbc="T T T"
Si      -1.36879984       1.38826639       1.31066645       0.00000000
Si      -1.36054081      -1.34568433      -1.36732467       0.00000000
Si       1.35386191       1.35044101      -1.37070900       0.00000000
Si       1.34653141      -1.33418359       1.40764479       0.00000000
Si       0.01275507       2.73914724       2.65211272       0.00000000
Si       2.66704769      -2.72965505       0.04002837       0.00000000
Si      -2.69553890      -2.70964767       0.00186721       0.00000000
Si      -0.06783156      -2.61726220       2.78926531       0.00000000
Si      -0.01172880      -2.69505346      -2.74214737       0.00000000
Si       2.71275743      -0.00270414      -2.72525493       0.00000000
