10
Lattice="16.290000149 0.0 0.0 0.0 16.290000149 0.0 0.0 0.0 29.1751946751" Properties=species:S:1:pos:R:3:initial_magmoms:R:1 pbc="T T T"
Si       1.22552929      -1.53165097       1.23991660       0.00000000
Si      -1.38424276      -1.34900749      -1.29677905       0.00000000
Si      -1.05262723       1.46966752       1.47757773       0.00000000
Si       1.37103157       1.31528719      -1.36183974       0.00000000
Si       0.76263265       2.22360131       2.86089041       0.00000000
Si      -2.36639945       0.11292228       2.86363288       0.00000000
Si      -0.01751175      -2.69151527      -2.62993957       0.00000000
Si      -0.01720224       2.60747516      -2.71994505       0.00000000
Si      -2.49942359       2.82134658       0.19532793       0.00000000
Si      -2.73759969       0.01104462      -2.59983077       0.00000000
