10
Lattice="16.290000149 0.0 0.0 0.0 16.290000149 0.0 0.0 0.0 29.1751946751" Properties=species:S:1:pos:R:3:initial_magmoms:R:1 pbc="T T T"
Si      -1.07885413      -1.16655949       1.70660301       0.00000000
Si       0.87397480      -1.78256585      -1.28370857       0.00000000
Si       1.87149296       1.46362393       0.15877141       0.00000000
Si      -1.59839110       1.30287421      -1.21187924       0.00000000
H        0.47829069       2.30200508       1.78660140       0.00000000
H       -1.23194755      -0.37023912       2.98234675       0.00000000
H        2.59243949       1.54334719       1.48253752       0.00000000
Si       1.99353764      -0.34169904      -2.83559552       0.00000000
Si      -3.28943973      -1.08973585       0.90046321       0.00000000
Si      -0.28461888       2.65961945      -2.59793439       0.00000000
