10
Lattice="16.290000149 0.0 0.0 0.0 16.290000149 0.0 0.0 0.0 29.1751946751" Properties=species:S:1:pos:R:3:initial_magmoms:R:1 pbc="T T T"
Si       1.72056611      -0.75707776      -1.38019093       0.00000000
Si       1.35816247       1.34713414       1.34010422       0.00000000
Si      -1.43811054       1.18441333      -1.44434719       0.00000000
Si      -1.19206637      -1.69223780       1.18862661       0.00000000
Si      -1.66303634      -0.67197880      -2.87649914       0.00000000
Si       0.64554013      -0.84646099      -3.47955042       0.00000000
Si       2.56588679      -2.60187140      -0.25682924       0.00000000
Si      -2.65332337      -0.41076864       2.53156082       0.00000000
Si      -0.08781939       2.54125631       2.69604706       0.00000000
Si       2.63754650      -0.14809239       2.67725970       0.00000000
