10
Lattice="16.290000149 0.0 0.0 0.0 16.290000149 0.0 0.0 0.0 29.1751946751" Properties=species:S:1:pos:R:3:initial_magmoms:R:1 pbc="T T T"
Si       1.31189887       1.35993808       1.34557748       0.00000000
Si      -1.37528326       1.26395740      -1.41726677       0.00000000
Si       1.28710549      -1.44932131      -1.32786522       0.00000000
Si      -1.42721578      -1.39048183       1.28121700       0.00000000
Si      -2.18479853      -0.59548096      -2.59829995       0.00000000
Si      -0.55175860      -2.33083838      -2.51402944       0.00000000
Si       2.62083296       2.64930788      -0.12492527       0.00000000
Si       2.62891280      -0.03140712       2.68719881       0.00000000
Si      -0.10686240       2.69040755       2.64801652       0.00000000
Si       2.53659737      -2.81973387       0.08515948       0.00000000
