10
Lattice="16.290000149 0.0 0.0 0.0 16.290000149 0.0 0.0 0.0 29.1751946751" Properties=species:S:1:pos:R:3:initial_magmoms:R:1 pbc="T T T"
H       -1.02770353      -1.11104317       0.21837633       0.00000000
Si       1.48806871      -1.05928984      -1.44177977       0.00000000
Si       1.17407895      -0.15353325       2.01311761       0.00000000
Si      -1.30295566       1.62727327      -1.12006490       0.00000000
H       -1.53644023       0.43592040       2.02096574       0.00000000
Si       0.01428633      -2.21146526       2.60187304       0.00000000
Si      -1.99580195      -0.84457135       2.68134627       0.00000000
Si      -2.56018529      -0.03611493      -2.33716650       0.00000000
Si       0.07278372      -2.50347980      -2.60729962       0.00000000
Si       3.05538501      -2.13721544      -0.07865632       0.00000000
