10
Lattice="16.290000149 0.0 0.0 0.0 16.290000149 0.0 0.0 0.0 29.1751946751" Properties=species:S:1:pos:R:3:initial_magmoms:R:1 pbc="T T T"
Si      -1.27112468       1.36373365       1.42086116       0.00000000
Si       1.34786393      -1.33864705       1.37467682       0.00000000
Si       1.34237420       1.36782244      -1.36335685       0.00000000
Si      -1.37702955      -1.34907265      -1.34841915       0.00000000
Si       2.66021893       0.13002678       2.65447591       0.00000000
Si       0.02032503      -2.69588262      -2.68688955       0.00000000
Si      -2.66268523       2.72070695       0.07229613       0.00000000
Si      -0.06523656      -2.63767845       2.75658909       0.00000000
Si      -2.68355272       0.02766042      -2.71682330       0.00000000
Si      -2.56670455       0.00583182       2.86512082       0.00000000
