10
Lattice="16.290000149 0.0 0.0 0.0 16.290000149 0.0 0.0 0.0 29.1751946751" Properties=species:S:1:pos:R:3:initial_magmoms:R:1 pbc="T T T"
H       -0.15309342       0.79632037       1.27574374       0.00000000
Si       1.07885413       1.16655949      -1.70660301       0.00000000
Si      -2.21058560       0.07682364      -0.80613980       0.00000000
Si       0.86260438      -2.07704018       0.79289427       0.00000000
H       -1.44964711      -1.87703156       1.71293403       0.00000000
H       -1.55663983       2.82574488       0.81766401       0.00000000
Si      -2.72995967      -1.91632304       0.89101045       0.00000000
Si       1.95282893      -0.61600636      -2.99031158       0.00000000
Si       0.71633647      -1.66086326       3.15077515       0.00000000
Si      -2.75372679       2.46013211      -0.07197521       0.00000000
