10
Lattice="16.290000149 0.0 0.0 0.0 16.290000149 0.0 0.0 0.0 29.1751946751" Properties=species:S:1:pos:R:3:initial_magmoms:R:1 pbc="T T T"
Si       1.35723394      -1.36495540       1.33689495       0.00000000
Si      -1.35444835      -1.36601425      -1.34083360       0.00000000
Si       1.37541358       1.33649677      -1.36169386       0.00000000
Si      -1.37961640       1.34407162       1.35784274       0.00000000
Si       2.64997577       0.07262082       2.64974953       0.00000000
Si       0.02972925      -2.72203948      -2.67425669       0.00000000
Si      -2.68301189      -0.00501732      -2.71413919       0.00000000
Si      -2.70707548       2.70549209      -0.00685617       0.00000000
Si      -2.70166557      -2.71963344       0.03431003       0.00000000
Si       0.03274290       2.72000648      -2.70526993       0.00000000
