10
Lattice="16.290000149 0.0 0.0 0.0 16.290000149 0.0 0.0 0.0 29.1751946751" Properties=species:S:1:pos:R:3:initial_magmoms:R:1 pbc="T T T"
H       -0.17894565       1.38768158       0.61019920       0.00000000
Si       0.83417833      -1.24403310       1.71331914       0.00000000
Si       1.89521120       0.01640729      -1.33908309       0.00000000
Si      -1.90027739      -0.54868141      -1.28560495       0.00000000
Si       0.64114183       1.12407680      -2.94097632       0.00000000
Si      -2.63024858       1.64131688      -0.88266634       0.00000000
Si      -0.69196663       2.67017700      -1.78382975       0.00000000
Si       1.87308938       0.60969887       2.66601178       0.00000000
Si       2.33049629      -2.27315386      -1.03892868       0.00000000
Si      -0.99777880      -2.26566046       2.65649775       0.00000000
