10
Lattice="16.290000149 0.0 0.0 0.0 16.290000149 0.0 0.0 0.0 29.1751946751" Properties=species:S:1:pos:R:3:initial_magmoms:R:1 pbc="T T T"
Si      -2.24577200       0.50657013      -0.27407178       0.00000000
Si       0.93058418      -0.81493821      -1.99587507       0.00000000
Si       0.28559693      -1.82383444       1.57158021       0.00000000
Si       1.33338701       1.97829020       0.48731328       0.00000000
Si       2.96748417       0.79596199       1.70113558       0.00000000
Si       1.63159664      -0.61036676       3.05402145       0.00000000
Si       2.77213449      -1.98829226      -1.06162698       0.00000000
Si      -0.93444328      -1.71749707      -3.12358387       0.00000000
Si      -2.97598755       1.14104935       1.90486830       0.00000000
Si       1.45596926      -3.41562207       0.28483743       0.00000000
