10
Lattice="16.290000149 0.0 0.0 0.0 16.290000149 0.0 0.0 0.0 29.1751946751" Properties=species:S:1:pos:R:3:initial_magmoms:R:1 pbc="T T T"
Si      -1.80778277      -1.31325094       0.64436335       0.00000000
Si       1.82097767      -1.45769437      -0.16574428       0.00000000
Si      -1.04119165       0.82934020      -1.94846538       0.00000000
Si       0.64917280       1.77178187       1.58806420       0.00000000
H        0.00280188      -1.14831469       3.12874788       0.00000000
Si      -2.58618413       2.07269075      -0.73407707       0.00000000
Si       3.44228880       0.22960755      -0.09969164       0.00000000
Si      -3.45654255       0.33117570       0.57720205       0.00000000
Si      -1.35614251      -1.72349831       2.85768114       0.00000000
Si       2.88178248       1.26374563       1.90977907       0.00000000
