10
Lattice="16.290000149 0.0 0.0 0.0 16.290000149 0.0 0.0 0.0 29.1751946751" Properties=species:S:1:pos:R:3:initial_magmoms:R:1 pbc="T T T"
Si       1.21511998      -1.41504715       1.44878707       0.00000000
Si      -1.48628332      -1.25294536      -1.37385992       0.00000000
Si      -1.48333483       1.29909347       1.33759515       0.00000000
Si       1.61624494       1.48683393      -0.94075415       0.00000000
Si       2.55565667      -2.77040775       0.10383452       0.00000000
H        1.16380648      -1.11195541      -3.46181190       0.00000000
Si       0.88627375       3.67683222      -0.53781554       0.00000000
Si      -2.79940395      -2.61910622       0.11042811       0.00000000
H        3.06322050      -0.69258565      -2.21667294       0.00000000
Si      -0.18549423       2.58295057       2.84363620       0.00000000
