10
Lattice="16.290000149 0.0 0.0 0.0 16.290000149 0.0 0.0 0.0 29.1751946751" Properties=species:S:1:pos:R:3:initial_magmoms:R:1 pbc="T T T"
Si       1.35826021       1.36637263       1.32963032       0.00000000
Si       1.36539523      -1.34664544      -1.35051976       0.00000000
Si      -1.32924772       1.36704052      -1.37549373       0.00000000
Si      -1.35607735      -1.37505520       1.35828036       0.00000000
Si       2.69588099      -0.00609246       2.68204647       0.00000000
Si      -0.00306252      -2.69562035      -2.68820244       0.00000000
Si      -2.70774011       0.00322542      -2.68041266       0.00000000
Si      -2.71459820       2.68136660      -0.01703831       0.00000000
Si       0.01014867       2.71094924       2.69727592       0.00000000
Si       2.69105915      -2.72943840       0.00930689       0.00000000
