10
Lattice="16.290000149 0.0 0.0 0.0 16.290000149 0.0 0.0 0.0 29.1751946751" Properties=species:S:1:pos:R:3:initial_magmoms:R:1 pbc="T T T"
Si      -2.06974226       0.72246639      -0.84476776       0.00000000
Si      -0.78371191      -1.49751691       1.71027909       0.00000000
Si       1.04563882      -0.67164648      -2.07245995       0.00000000
Si       0.91836505       2.08225950       0.81320020       0.00000000
H       -1.39388644       2.28226812       1.73323997       0.00000000
Si      -1.33089301       1.29521628      -3.00781669       0.00000000
Si      -2.67419900       2.24297664       0.91131638       0.00000000
H        0.39926790      -3.59174304      -0.53177627       0.00000000
Si      -2.32038020      -2.81793545       0.52617464       0.00000000
Si      -3.35018514      -1.26856096      -0.94218374       0.00000000
