10
Lattice="16.290000149 0.0 0.0 0.0 16.290000149 0.0 0.0 0.0 29.1751946751" Properties=species:S:1:pos:R:3:initial_magmoms:R:1 pbc="T T T"
H       -1.13733034       0.96495445       0.29408596       0.00000000
H        1.49067837      -1.48561543      -0.63709873       0.00000000
Si       1.47725541       1.20658402      -1.38687205       0.00000000
Si       1.28873123       0.15566724       2.02770521       0.00000000
Si      -1.31753033      -1.69596821      -1.15072803       0.00000000
H       -2.29500364      -0.84141109       2.22460859       0.00000000
Si       2.11266315      -2.78523979      -0.19427762       0.00000000
Si       0.04568368       2.41833197      -2.77114752       0.00000000
Si      -2.61000337      -0.34670007      -2.64163883       0.00000000
Si       0.74559005       2.53897571       2.76186980       0.00000000
