10
Lattice="16.290000149 0.0 0.0 0.0 16.290000149 0.0 0.0 0.0 29.1751946751" Properties=species:S:1:pos:R:3:initial_magmoms:R:1 pbc="T T T"
Si      -1.35335692       1.36005211      -1.30305172       0.00000000
Si       1.38424276       1.34900749       1.29677905       0.00000000
Si       1.36673101      -1.34250778      -1.33316052       0.00000000
Si      -1.34501644      -1.30885264       1.39276544       0.00000000
H       -0.43839648      -2.20752308       2.20080164       0.00000000
Si       2.60977205      -0.18264348       2.53669565       0.00000000
Si      -2.66286116      -0.07105698      -2.62506732       0.00000000
Si      -2.55041129       2.76205098       0.17391334       0.00000000
Si       2.60464070      -2.73412992       0.03970744       0.00000000
Si       0.01871721       2.61272054      -2.73604976       0.00000000
