10
Lattice="16.290000149 0.0 0.0 0.0 16.290000149 0.0 0.0 0.0 29.1751946751" Properties=species:S:1:pos:R:3:initial_magmoms:R:1 pbc="T T T"
Si       1.38220651      -1.35128809      -1.35845541       0.00000000
Si      -1.32892192       1.33030657      -1.43075155       0.00000000
Si       1.40836825       1.35956341       1.32327013       0.00000000
Si      -1.35236323      -1.38924379       1.35113244       0.00000000
H       -1.12791961       2.89878924       2.14571887       0.00000000
Si      -2.69299766      -2.67533930      -0.08040684       0.00000000
Si       2.69907383      -0.05869287       2.67603638       0.00000000
Si       0.06610482       2.40867200       2.94616951       0.00000000
Si       2.72406269       2.68664456      -0.12104788       0.00000000
Si       0.03934035      -2.67892310      -2.76633361       0.00000000
