10
Lattice="16.290000149 0.0 0.0 0.0 16.290000149 0.0 0.0 0.0 29.1751946751" Properties=species:S:1:pos:R:3:initial_magmoms:R:1 pbc="T T T"
Si       1.32020677       1.34117200       1.39424463       0.00000000
Si      -1.35914802       1.33894027      -1.38077152       0.00000000
Si       1.41902191      -1.38183184      -1.28416953       0.00000000
Si      -1.37434985      -1.36067113       1.36159758       0.00000000
Si       0.03139083      -2.65685015      -2.66167343       0.00000000
Si       2.67605606       2.65551437      -0.00486059       0.00000000
Si       0.12924486       2.53861733      -2.81494824       0.00000000
Si       2.62216874      -2.77858533       0.15738267       0.00000000
Si      -2.86541103      -0.04667085      -2.54820964       0.00000000
Si       2.67333563      -0.02537982       2.75048273       0.00000000
