10
Lattice="16.290000149 0.0 0.0 0.0 16.290000149 0.0 0.0 0.0 29.1751946751" Properties=species:S:1:pos:R:3:initial_magmoms:R:1 pbc="T T T"
Si       1.91840816      -1.05911879       0.77807327       0.00000000
Si      -1.25576353      -1.32028985      -1.46765817       0.00000000
Si       1.16295940       1.43941536      -1.50485654       0.00000000
Si      -0.98007157       0.40042286       2.15082453       0.00000000
H       -1.88007779       1.96602220       0.65623765       0.00000000
Si       0.04852791       2.55003499       2.54401863       0.00000000
Si      -2.60478731      -2.60734647      -0.09496526       0.00000000
Si       3.66507084      -0.73150246      -0.71237073       0.00000000
Si       2.68438025       0.12282823      -2.70217736       0.00000000
Si       2.60319089       2.76939614      -0.29449441       0.00000000
