10
Lattice="16.290000149 0.0 0.0 0.0 16.290000149 0.0 0.0 0.0 29.1751946751" Properties=species:S:1:pos:R:3:initial_magmoms:R:1 pbc="T T T"
Si       1.36028017      -1.35348887       1.35180347       0.00000000
Si      -1.36208836       1.36342251       1.34602678       0.00000000
Si       1.34978941       1.38688011      -1.33593216       0.00000000
Si      -1.34539111      -1.38825173      -1.34060020       0.00000000
Si      -2.78076819      -0.04248269      -2.60149376       0.00000000
Si       0.00017919      -2.71704333       2.69377490       0.00000000
Si       2.79243183       0.05484191      -2.61844455       0.00000000
Si      -0.00322542       2.70744527       2.71055064       0.00000000
Si      -0.02774187       2.72674892      -2.69447510       0.00000000
Si      -2.72771165       0.01509594       2.69365820       0.00000000
