10
Lattice="16.290000149 0.0 0.0 0.0 16.290000149 0.0 0.0 0.0 29.1751946751" Properties=species:S:1:pos:R:3:initial_magmoms:R:1 pbc="T T T"
Si      -0.56050633       1.03413808       2.00947071       0.00000000
Si      -1.62131113      -1.68730193      -0.06605264       0.00000000
Si       2.19527300      -0.71692291      -0.46505260       0.00000000
Si       0.03971502       2.14796032      -0.97573521       0.00000000
Si       0.68194828       2.82205845       1.17050881       0.00000000
Si       1.90594631       0.17259255      -2.70442385       0.00000000
Si       1.92096569      -2.75397114       0.72313638       0.00000000
Si      -3.44228880      -0.22960755       0.09969164       0.00000000
Si      -0.22240737      -0.80508439      -3.38123001       0.00000000
Si      -2.79311601       1.54217431       1.68775584       0.00000000
