10
Lattice="16.290000149 0.0 0.0 0.0 16.290000149 0.0 0.0 0.0 29.1751946751" Properties=species:S:1:pos:R:3:initial_magmoms:R:1 pbc="T T T"
Si       1.36138789       0.99927748      -1.63570729       0.00000000
Si       1.42478857      -1.62418046       0.93030943       0.00000000
Si      -1.82141750      -1.20184200      -1.00648587       0.00000000
Si      -0.09023031       1.71167177       1.81160454       0.00000000
H       -2.23814828       1.45614682       0.48938472       0.00000000
Si       2.78989059       2.27015813      -0.23526877       0.00000000
Si       0.65116018       0.38211453       3.59817676       0.00000000
Si      -2.88329745       2.29905659      -0.58860955       0.00000000
Si       2.64963368      -0.50463162       2.61246363       0.00000000
Si       0.15843654      -3.08936595       2.20526544       0.00000000
