10
Lattice="16.290000149 0.0 0.0 0.0 16.290000149 0.0 0.0 0.0 29.1751946751" Properties=species:S:1:pos:R:3:initial_magmoms:R:1 pbc="T T T"
Si      -1.32020677      -1.34117200      -1.39424463       0.00000000
Si       1.35584929       1.31434237      -1.39910521       0.00000000
Si      -1.37873674       1.35949825       1.33558206       0.00000000
Si       1.35312886      -1.36655182       1.35623810       0.00000000
Si       2.69959511       2.68363091      -0.03594384       0.00000000
Si      -2.69455662      -2.70184313      -0.03264704       0.00000000
Si      -0.01798416       2.71308323       2.68928192       0.00000000
Si       0.09881514      -2.72300384      -2.67841416       0.00000000
Si       2.69967656      -0.01005093       2.71965330       0.00000000
Si      -0.01782126       2.66577707      -2.75988297       0.00000000
