10
Lattice="16.290000149 0.0 0.0 0.0 16.290000149 0.0 0.0 0.0 29.1751946751" Properties=species:S:1:pos:R:3:initial_magmoms:R:1 pbc="T T T"
Si      -1.35889552       1.35314515       1.35454594       0.00000000
Si      -1.35886294      -1.34402275      -1.36452385       0.00000000
Si       1.32331816      -1.36681246       1.39037308       0.00000000
Si       1.35607735       1.37505520      -1.35828036       0.00000000
Si       2.69456150       0.02493999       2.69359985       0.00000000
Si       2.69519681      -2.70538458       0.02412789       0.00000000
Si       0.01133784       2.72000648       2.68960285       0.00000000
Si      -2.71446788       2.70148475      -0.01665904       0.00000000
Si      -2.72448623      -2.69234932      -0.01689244       0.00000000
Si       0.00322542      -2.70744527      -2.71055064       0.00000000
