10
Lattice="16.290000149 0.0 0.0 0.0 16.290000149 0.0 0.0 0.0 29.1751946751" Properties=species:S:1:pos:R:3:initial_magmoms:R:1 pbc="T T T"
Si      -1.34724817      -1.36075258      -1.35250367       0.00000000
Si       1.34267068      -1.38350971       1.34357607       0.00000000
Si      -1.38943927       1.35021295       1.33342310       0.00000000
Si       1.34900749       1.34741107      -1.37794444       0.00000000
Si       2.71016732      -0.02523321       2.67238948       0.00000000
Si      -0.03984534       2.73678519       2.65672240       0.00000000
Si      -2.69143057      -0.00371412      -2.71551042       0.00000000
Si       2.71401176       2.70283682      -0.03048808       0.00000000
Si       0.01130526      -2.71700912      -2.70632023       0.00000000
Si      -0.03274290      -2.72000648       2.70526993       0.00000000
