10
Lattice="16.290000149 0.0 0.0 0.0 16.290000149 0.0 0.0 0.0 29.1751946751" Properties=species:S:1:pos:R:3:initial_magmoms:R:1 pbc="T T T"
Si      -1.36713826      -1.35022924       1.35037097       0.00000000
Si       1.30492675       1.29512017       1.47515328       0.00000000
Si      -1.37127592       1.41200092      -1.30386863       0.00000000
Si       1.36322866      -1.34754139      -1.39073485       0.00000000
Si       2.66082491       2.63585234       0.16026518       0.00000000
Si       2.71189406      -2.70976007      -0.01422583       0.00000000
Si      -0.01580130      -2.66866040       2.75871597       0.00000000
Si      -2.72997596       0.02344131       2.69954867       0.00000000
Si      -2.71088408      -2.71951778      -0.01279041       0.00000000
Si      -2.78418909       0.11565900      -2.64721625       0.00000000
