10
Lattice="16.290000149 0.0 0.0 0.0 16.290000149 0.0 0.0 0.0 29.1751946751" Properties=species:S:1:pos:R:3:initial_magmoms:R:1 pbc="T T T"
Si       0.63964315      -0.39153015       2.14840299       0.00000000
Si       1.82791721       0.84440845      -1.14101269       0.00000000
Si      -0.87619024      -1.88201630      -1.07070047       0.00000000
Si      -1.58659714       1.79046650       0.09257289       0.00000000
H        2.55818162       1.74736316      -0.19506535       0.00000000
Si      -2.26442405      -0.58982833      -2.42880578       0.00000000
Si       0.55003186       2.13798107      -2.58512647       0.00000000
Si      -1.48458916      -0.97370218       3.15202968       0.00000000
Si      -3.44492778       0.86240890      -1.01401307       0.00000000
Si      -0.53349750       3.55798038      -1.08849734       0.00000000
