10
Lattice="16.290000149 0.0 0.0 0.0 16.290000149 0.0 0.0 0.0 29.1751946751" Properties=species:S:1:pos:R:3:initial_magmoms:R:1 pbc="T T T"
Si       1.38223909      -1.35663121      -1.32394991       0.00000000
Si       1.33726240       1.32483313       1.40459890       0.00000000
Si      -1.35311257      -1.39776346       1.32034094       0.00000000
Si      -1.32923143       1.39562947      -1.36900516       0.00000000
Si      -0.03067407      -2.65297313      -2.66729754       0.00000000
Si      -2.65891898       2.71011845       0.05049059       0.00000000
Si       2.70446582       0.04631247      -2.66609406       0.00000000
Si      -2.70519887      -0.02842605       2.67856295       0.00000000
Si      -2.75603997       0.03637557      -2.64851017       0.00000000
Si       2.68708439       2.72008342       0.09425047       0.00000000
