10
Lattice="16.290000149 0.0 0.0 0.0 16.290000149 0.0 0.0 0.0 29.1751946751" Properties=species:S:1:pos:R:3:initial_magmoms:R:1 pbc="T T T"
Si       1.34680834       1.33289668       1.38873927       0.00000000
Si       1.33045318      -1.44034552      -1.31380861       0.00000000
Si      -1.34143264      -1.41828886       1.36003088       0.00000000
Si      -1.42684111       1.36715455      -1.33488186       0.00000000
H        0.48597957       1.65024218      -3.21332677       0.00000000
Si      -2.76444561       2.52102413       0.22246961       0.00000000
Si       2.64948707       2.68667714      -0.04583131       0.00000000
Si      -2.73536796      -0.07982100      -2.70430714       0.00000000
Si      -0.06488307      -2.76190437      -2.67883720       0.00000000
Si       2.69522939      -0.05189994       2.75052065       0.00000000
