10
Lattice="16.290000149 0.0 0.0 0.0 16.290000149 0.0 0.0 0.0 29.1751946751" Properties=species:S:1:pos:R:3:initial_magmoms:R:1 pbc="T T T"
Si      -0.84532069       1.84479365      -1.12336170       0.00000000
Si       1.71527186      -0.44181738      -1.52577516       0.00000000
Si       1.37837836       1.02856690       1.63188534       0.00000000
Si      -1.39432627      -1.73804528       0.91510916       0.00000000
H        1.11536002      -0.53341605      -2.92627203       0.00000000
H       -1.99842464      -1.17623575      -2.18860640       0.00000000
Si       2.19258515      -2.47160027      -0.46651136       0.00000000
Si       0.32360085      -3.36869058       0.81042856       0.00000000
Si       2.64303623       2.51196689       0.30561016       0.00000000
Si      -2.56588679       2.60187140       0.25682924       0.00000000
