10
Lattice="16.290000149 0.0 0.0 0.0 16.290000149 0.0 0.0 0.0 29.1751946751" Properties=species:S:1:pos:R:3:initial_magmoms:R:1 pbc="T T T"
Si       1.29784060       1.28385710       1.50604105       0.00000000
Si      -1.33524244      -1.36482362       1.40828081       0.00000000
Si       1.48333483      -1.29909347      -1.33759515       0.00000000
Si      -1.35690814       1.38614038      -1.39903811       0.00000000
Si      -0.00294849      -2.55203883      -2.71145507       0.00000000
Si      -2.60804531       2.72903261       0.08760144       0.00000000
Si       2.69845481      -2.71414062       0.11119192       0.00000000
Si       2.28680651       3.07100858       0.35387469       0.00000000
Si       2.36960858       2.37773876      -1.87541069       0.00000000
Si       0.16620687       2.75995103      -2.67959575       0.00000000
