10
Lattice="16.290000149 0.0 0.0 0.0 16.290000149 0.0 0.0 0.0 29.1751946751" Properties=species:S:1:pos:R:3:initial_magmoms:R:1 pbc="T T T"
Si       0.62871256       0.80148430      -1.09593701       0.00000000
H       -1.58416993      -0.92357785      -0.36057623       0.00000000
H       -0.66186271      -1.68534713       1.14360928       0.00000000
Si       0.53216172      -2.17546436       1.94405992       0.00000000
Si      -2.25816869       0.97520086       1.66216919       0.00000000
Si       1.82027720       2.38268945       0.16378954       0.00000000
Si       1.89721487      -0.53729307      -2.49226183       0.00000000
Si      -0.95566915       1.92396305      -2.37567775       0.00000000
Si      -2.54749538       1.86471632      -0.57720205       0.00000000
Si      -2.31443435      -1.82653256      -1.30652357       0.00000000
