10
Lattice="16.290000149 0.0 0.0 0.0 16.290000149 0.0 0.0 0.0 29.1751946751" Properties=species:S:1:pos:R:3:initial_magmoms:R:1 pbc="T T T"
Si       1.31100944       1.40631571       1.29453256       0.00000000
Si      -1.29290473       1.36019872      -1.36910436       0.00000000
Si       1.40387058      -1.31755150      -1.31530530       0.00000000
Si      -1.31569444      -1.32708115       1.44431801       0.00000000
Si      -2.56140704       2.69897609       0.02722046       0.00000000
Si       0.01554066      -2.69320943      -2.63063978       0.00000000
Si       2.77565313      -2.55770921       0.12592014       0.00000000
Si      -2.70324407       0.01283652      -2.67869132       0.00000000
Si       2.73660600       0.07822458      -2.66010672       0.00000000
Si       2.70948314       0.18568971       2.69246202       0.00000000
