10
Lattice="16.290000149 0.0 0.0 0.0 16.290000149 0.0 0.0 0.0 29.1751946751" Properties=species:S:1:pos:R:3:initial_magmoms:R:1 pbc="T T T"
Si      -1.35936793       1.35783830       1.33969576       0.00000000
Si       1.34904007       1.37383508      -1.33625309       0.00000000
Si       1.38491065      -1.35917082       1.31965241       0.00000000
Si      -1.35547462      -1.37202363      -1.33797443       0.00000000
Si       2.67890681      -0.04624242      -2.62229567       0.00000000
Si       0.00814500      -2.71555769       2.65030386       0.00000000
Si      -2.72629442      -0.01137042      -2.65100406       0.00000000
Si       0.01312974       2.70469551       2.68432214       0.00000000
Si       2.73196334       0.01133621       2.67285628       0.00000000
Si      -2.70371648       0.00267645       2.70471560       0.00000000
