10
Lattice="16.290000149 0.0 0.0 0.0 16.290000149 0.0 0.0 0.0 29.1751946751" Properties=species:S:1:pos:R:3:initial_magmoms:R:1 pbc="T T T"
Si      -1.45156933       1.42729723       1.12633757       0.00000000
Si      -1.35936793      -1.31496139      -1.39425338       0.00000000
Si       1.34974054       1.36917451      -1.36898766       0.00000000
Si       1.32892192      -1.33030657       1.43075155       0.00000000
H       -0.72130492       2.33025194       2.07228490       0.00000000
Si      -2.70430292      -2.65772981      -0.03305550       0.00000000
Si       2.71112843      -2.68159466       0.07229613       0.00000000
Si       0.00703728      -2.67957470      -2.72082031       0.00000000
Si       2.72932437       0.02349018      -2.70200230       0.00000000
Si      -2.72945468       2.72086985      -0.31777622       0.00000000
