10
Lattice="16.290000149 0.0 0.0 0.0 16.290000149 0.0 0.0 0.0 29.1751946751" Properties=species:S:1:pos:R:3:initial_magmoms:R:1 pbc="T T T"
Si       1.35889552      -1.35314515      -1.35454594       0.00000000
Si       1.37023336       1.36686133       1.33505691       0.00000000
Si      -1.35386191      -1.35044101       1.37070900       0.00000000
Si      -1.35557236       1.34833960      -1.37120497       0.00000000
Si       0.00382815       2.73147464       2.66162384       0.00000000
Si       2.68221368      -2.71995761       0.03582714       0.00000000
Si      -2.72266175       0.03782538       2.68137544       0.00000000
Si      -2.71440272      -2.69612534       0.00338432       0.00000000
Si       0.00003258      -2.69716790      -2.71906979       0.00000000
Si       2.71497287       0.02191005      -2.71282630       0.00000000
