10
Lattice="16.290000149 0.0 0.0 0.0 16.290000149 0.0 0.0 0.0 29.1751946751" Properties=species:S:1:pos:R:3:initial_magmoms:R:1 pbc="T T T"
Si      -1.21925764      -1.32201496       1.49429512       0.00000000
Si       1.53482752       0.71985511       1.61049992       0.00000000
Si       0.63156331      -1.07528662      -2.04439342       0.00000000
Si      -1.48906891       1.86592178      -0.35339913       0.00000000
H        1.87146038      -1.85461652       0.71126207       0.00000000
H        3.08529345       0.31804596      -1.01159153       0.00000000
Si      -1.87108571       1.22114728      -2.57649062       0.00000000
Si       0.30540492       2.57129507       2.27537343       0.00000000
Si       3.15695316       1.39312081       0.04883928       0.00000000
Si      -2.55236609       0.22408524       2.65144169       0.00000000
