10
Lattice="16.290000149 0.0 0.0 0.0 16.290000149 0.0 0.0 0.0 29.1751946751" Properties=species:S:1:pos:R:3:initial_magmoms:R:1 pbc="T T T"
H        1.07914735      -1.71414785      -0.78570375       0.00000000
Si      -0.24925329       0.51313500      -2.29905027       0.00000000
Si       1.94194721       0.85180411       1.06286285       0.00000000
Si      -1.74557126       1.54225576       0.45319755       0.00000000
Si      -0.83367334      -1.99723547       1.09274116       0.00000000
Si       0.71097706       2.05306619       2.65952497       0.00000000
Si      -2.17127783      -0.84336589       2.65009263       0.00000000
Si       1.97975630      -2.45635283      -1.76394802       0.00000000
Si      -2.14734782      -0.78900616      -2.92999303       0.00000000
Si      -0.70666021       3.39598773       1.40589020       0.00000000
