10
Lattice="16.290000149 0.0 0.0 0.0 16.290000149 0.0 0.0 0.0 29.1751946751" Properties=species:S:1:pos:R:3:initial_magmoms:R:1 pbc="T T T"
Si      -1.40308215       1.16988265      -1.46086035       0.00000000
Si      -1.45921749      -1.17850006       1.41690208       0.00000000
Si       1.46125700      -1.28146915      -1.34293421       0.00000000
Si       1.22014382       1.49004631       1.39809575       0.00000000
H       -2.30369110       1.91208764      -0.48261607       0.00000000
Si       2.65332337       0.41076864      -2.53156082       0.00000000
Si      -0.07113029      -2.53892684       2.77302348       0.00000000
Si      -2.85455374      -2.50005890       0.05187350       0.00000000
Si       2.60593576       0.15038928       2.76997176       0.00000000
Si      -0.25103705       2.80894989      -2.64207645       0.00000000
