10
Lattice="16.290000149 0.0 0.0 0.0 16.290000149 0.0 0.0 0.0 29.1751946751" Properties=species:S:1:pos:R:3:initial_magmoms:R:1 pbc="T T T"
Si      -1.36217245      -1.39536883      -1.31807403       0.00000000
Si       1.29434965      -1.35278677       1.43162680       0.00000000
Si      -1.35036803       1.32685309       1.40653614       0.00000000
Si       1.37434985       1.36067113      -1.36159758       0.00000000
Si      -2.66141624      -2.68565576       0.15392833       0.00000000
Si      -2.81257115      -0.01086543      -2.54410032       0.00000000
Si       0.06985315      -2.70250777      -2.67038515       0.00000000
Si       2.69455662       2.70184313       0.03264704       0.00000000
Si       2.65018266      -2.74810836       0.14217072       0.00000000
Si      -2.68037780       2.73557973       0.09566546       0.00000000
