10
Lattice="16.290000149 0.0 0.0 0.0 16.290000149 0.0 0.0 0.0 29.1751946751" Properties=species:S:1:pos:R:3:initial_magmoms:R:1 pbc="T T T"
H       -1.44287047       0.28522161       0.43999111       0.00000000
Si       0.44903385      -2.13258908       0.89031024       0.00000000
Si      -0.35450298       0.23338683      -2.36193624       0.00000000
Si       1.22476366       1.58653198       1.41447179       0.00000000
H        0.18277380       2.68695407      -0.96902492       0.00000000
H        1.53504744      -1.40129839      -2.10064319       0.00000000
H        0.37737414      -3.20766393      -0.17012056       0.00000000
Si      -0.78532462       2.95342590       1.49394502       0.00000000
Si       3.41796783       0.17272287       0.36714065       0.00000000
Si      -2.66444129       2.24946983       0.21930994       0.00000000
