10
Lattice="16.290000149 0.0 0.0 0.0 16.290000149 0.0 0.0 0.0 29.1751946751" Properties=species:S:1:pos:R:3:initial_magmoms:R:1 pbc="T T T"
Si      -1.34542369       1.34498386      -1.36598261       0.00000000
Si      -1.35550720      -1.37080351       1.34617266       0.00000000
Si       1.35742942       1.34820928       1.36747055       0.00000000
Si       1.34353405      -1.30302082      -1.42418713       0.00000000
Si      -2.76771990      -0.11489337      -2.59045678       0.00000000
Si       0.11453499       2.78153870      -2.58102444       0.00000000
Si      -2.69907383       2.67480173       0.03471848       0.00000000
Si       2.69195510      -2.68781744      -0.06240574       0.00000000
Si       0.00705357      -2.71073747       2.71005466       0.00000000
Si      -2.71054199      -0.01791900       2.71198022       0.00000000
