10
Lattice="16.290000149 0.0 0.0 0.0 16.290000149 0.0 0.0 0.0 29.1751946751" Properties=species:S:1:pos:R:3:initial_magmoms:R:1 pbc="T T T"
Si       1.34633593       1.33019417      -1.34638564       0.00000000
Si      -1.35583300       1.39532159       1.28945608       0.00000000
Si       1.37081980      -1.36065321       1.31302964       0.00000000
Si      -1.30132666      -1.32743790      -1.42526661       0.00000000
Si      -2.68042830       0.01171414       2.65112076       0.00000000
Si      -0.01677870      -2.72005373       2.61678156       0.00000000
Si       0.03689685       2.73908370       2.61838620       0.00000000
Si       2.72629442       0.01137042       2.65100406       0.00000000
Si      -2.58032951       0.04560060      -2.81255587       0.00000000
Si      -2.65018266       2.74810836      -0.14217072       0.00000000
