10
Lattice="16.290000149 0.0 0.0 0.0 16.290000149 0.0 0.0 0.0 29.1751946751" Properties=species:S:1:pos:R:3:initial_magmoms:R:1 pbc="T T T"
Si       1.36469476      -1.34304535       1.35615057       0.00000000
Si       1.37676565       1.35638686      -1.33065145       0.00000000
Si      -1.31740489       1.37042884       1.38366278       0.00000000
Si      -1.36818082      -1.36212094      -1.34999461       0.00000000
Si      -0.00814500       2.71555769      -2.65030386       0.00000000
Si      -0.02112813      -2.70249473       2.67268123       0.00000000
Si       2.72706006      -0.02133990      -2.67775772       0.00000000
Si      -2.68022630       0.01907559       2.73240286       0.00000000
Si       2.73895176       0.02484225       2.69135336       0.00000000
Si      -2.71186148       2.71823413       0.05441174       0.00000000
