10
Lattice="16.290000149 0.0 0.0 0.0 16.290000149 0.0 0.0 0.0 29.1751946751" Properties=species:S:1:pos:R:3:initial_magmoms:R:1 pbc="T T T"
Si       1.38968362       1.44556647       1.23376063       0.00000000
Si      -1.25797897       1.39572233      -1.42751310       0.00000000
Si       1.43681059      -1.27738036      -1.40939530       0.00000000
Si      -1.30077280      -1.58995288       1.27481013       0.00000000
Si      -2.52913655      -2.72403011      -0.34838100       0.00000000
Si       0.28360890      -2.71243163       2.55455087       0.00000000
Si       2.87022778       0.16567631       2.47732413       0.00000000
Si      -2.57849525       2.79119379      -0.05989667       0.00000000
Si      -2.56401344       0.08273691      -2.87384420       0.00000000
Si       2.88654290      -2.62228277      -0.13134673       0.00000000
