10
Lattice="16.290000149 0.0 0.0 0.0 16.290000149 0.0 0.0 0.0 29.1751946751" Properties=species:S:1:pos:R:3:initial_magmoms:R:1 pbc="T T T"
Si       1.31865922      -1.43980795       1.27892383       0.00000000
Si      -1.34998489      -1.36089919      -1.34768977       0.00000000
Si       1.38582289       1.35944938      -1.31653066       0.00000000
Si      -1.29094993       1.36860436       1.41012468       0.00000000
Si       2.74427859      -0.04781115       2.45941056       0.00000000
Si       0.02112813       2.70249473      -2.67268123       0.00000000
Si      -2.65909817       2.72157032       0.05972162       0.00000000
Si      -2.71397918      -0.00428427      -2.67977081       0.00000000
Si      -0.07017732      -2.77562055       2.61573125       0.00000000
Si       0.02629206      -2.72438849      -2.67977081       0.00000000
