10
Lattice="16.290000149 0.0 0.0 0.0 16.290000149 0.0 0.0 0.0 29.1751946751" Properties=species:S:1:pos:R:3:initial_magmoms:R:1 pbc="T T T"
Si       1.34959393       1.38657223       1.32329930       0.00000000
Si      -1.33787165       1.35863488      -1.36452385       0.00000000
Si       1.38943927      -1.35021295      -1.33342310       0.00000000
Si      -1.35037911      -1.36472734       1.36499066       0.00000000
Si       2.65865834      -0.04237029       2.61870712       0.00000000
Si      -2.66535353       2.70731657       0.03069230       0.00000000
Si       0.04219110      -2.71096553      -2.68592677       0.00000000
Si      -2.69145011      -2.72228708       0.00638937       0.00000000
Si      -2.69037497       0.00706986      -2.72592596       0.00000000
Si       0.02107926       2.71015103      -2.72726802       0.00000000
