10
Lattice="10.86 0.0 0.0 0.0 10.86 0.0 0.0 0.0 10.86" Properties=species:S:1:pos:R:3:initial_magmoms:R:1 pbc="T T T"
Si       1.35750000       1.35750000       1.35750000       0.00000000
Si      -1.35750000      -1.35750000       1.35750000       0.00000000
Si      -1.35750000       1.35750000      -1.35750000       0.00000000
Si       1.35750000      -1.35750000      -1.35750000       0.00000000
Si      -0.10449492       2.40002742       2.44158864       0.00000000
Si       0.12944034      -2.66100408      -2.59313994       0.00000000
Si      -2.69371440      -0.14327598      -2.61730344       0.00000000
Si       2.88247206       0.29021178       2.42823084       0.00000000
Si       2.86543272      -0.22612692      -2.49922266       0.00000000
Si      -2.71500000       2.71500000       0.00000000       0.00000000
