10
Lattice="16.28999089631971 0.0 0.0 0.0 16.28999089631971 0.0 0.0 0.0 34.64500226677339" Properties=species:S:1:pos:R:3:initial_magmoms:R:1 pbc="T T T"
Si       0.30227724       2.21925186      -0.58785673       0.00000000
Si       0.66389895      -0.42691203       2.18644731       0.00000000
Si      -2.30259869      -0.46574739      -0.31488860       0.00000000
Si       1.53181386      -1.45484361      -1.11456499       0.00000000
Si      -1.79393299       2.97544995       0.24310412       0.00000000
Si      -0.09153351       1.60415775      -3.13478549       0.00000000
Si       1.51620804      -0.31496715      -3.22614441       0.00000000
Si      -0.07457562      -2.62168002       2.62772096       0.00000000
Si      -0.37295955       1.20697497       3.53801890       0.00000000
Si       3.37178565      -1.75643667       0.42887072       0.00000000
