10
Lattice="16.28999089631971 0.0 0.0 0.0 16.28999089631971 0.0 0.0 0.0 34.64500226677339" Properties=species:S:1:pos:R:3:initial_magmoms:R:1 pbc="T T T"
Si       2.00853790       0.92492991       0.72331876       0.00000000
Si      -1.73543257      -0.91836504       1.26482045       0.00000000
Si       0.87410230      -2.02522167      -0.82787744       0.00000000
Si      -0.44588359       1.82211048      -1.56654394       0.00000000
Si      -2.71609057      -1.10434797      -1.04849693       0.00000000
Si       1.85401096      -0.89779077      -2.66361320       0.00000000
Si       3.14608489       0.61038630      -1.36875551       0.00000000
Si      -1.25952022       0.35460072       3.27540963       0.00000000
Si       0.15236228       0.52000938      -3.55062969       0.00000000
Si       2.50478017      -2.56627773       0.78266568       0.00000000
