10
Lattice="16.28999089631971 0.0 0.0 0.0 16.28999089631971 0.0 0.0 0.0 34.64500226677339" Properties=species:S:1:pos:R:3:initial_magmoms:R:1 pbc="T T T"
Si      -1.60964489       0.48936204       1.73848719       0.00000000
Si       0.12250895       0.68612407      -2.31723227       0.00000000
Si      -0.48268084      -1.79199774      -1.63042936       0.00000000
Si       2.02941797       1.38506118       0.33307724       0.00000000
Si       0.00604033       1.41113332       3.17430303       0.00000000
Si      -2.85539006      -1.90114074      -0.58040805       0.00000000
Si       1.13376119       2.94861122       1.82333462       0.00000000
Si       1.86656684      -3.01145085       1.85228053       0.00000000
Si       2.05999430       3.33158912      -1.17744571       0.00000000
Si       2.22846548       0.26099416      -3.49547481       0.00000000
