10
Lattice="16.28999089631971 0.0 0.0 0.0 16.28999089631971 0.0 0.0 0.0 34.64500226677339" Properties=species:S:1:pos:R:3:initial_magmoms:R:1 pbc="T T T"
Si      -1.35653346      -1.34710969       1.37371668       0.00000000
Si      -1.33488405       1.36612827      -1.38197952       0.00000000
Si       1.35462753       1.36976094       1.37437494       0.00000000
Si       1.39800780      -1.26799079      -1.53244285       0.00000000
Si       0.59738688       1.94180058      -2.69949158       0.00000000
Si       2.56862349       0.47649879      -2.77043215       0.00000000
Si       2.71834488      -2.69301188      -0.02061032       0.00000000
Si      -2.71340901      -2.71145753       0.01222969       0.00000000
Si      -0.00048870      -2.70372365       2.73256372       0.00000000
Si      -0.21256821      -2.47935429      -2.93655503       0.00000000
