10
Lattice="16.28999089631971 0.0 0.0 0.0 16.28999089631971 0.0 0.0 0.0 34.64500226677339" Properties=species:S:1:pos:R:3:initial_magmoms:R:1 pbc="T T T"
Si      -1.35483930      -1.35577272       1.35638724       0.00000000
Si       1.35708732      -1.35704334      -1.35718408       0.00000000
Si      -1.35707103       1.35710361      -1.35746124       0.00000000
Si       1.35783666       1.36005210       1.35721872       0.00000000
Si       0.00125433      -2.71353023      -2.71384848       0.00000000
Si      -0.00179190       2.71370223       2.71461067       0.00000000
Si      -2.71446786       0.00114030      -2.71492247       0.00000000
Si      -2.71495656      -2.71453192      -0.00020787       0.00000000
Si       0.00097740      -2.71648526       2.71322487       0.00000000
Si       2.71495656      -2.71480684      -0.00003465       0.00000000
