10
Lattice="16.28999089631971 0.0 0.0 0.0 16.28999089631971 0.0 0.0 0.0 34.64500226677339" Properties=species:S:1:pos:R:3:initial_magmoms:R:1 pbc="T T T"
Si       1.35483930       1.35577272      -1.35638724       0.00000000
Si       1.35581670      -1.36071255       1.35683763       0.00000000
Si      -1.35944937       1.35293826       1.36106432       0.00000000
Si      -1.36011726      -1.35875921      -1.35659511       0.00000000
Si       2.71195920      -2.71332986       0.00079684       0.00000000
Si       2.71192662      -0.00127062      -2.71357132       0.00000000
Si      -0.00223173       2.71287633      -2.71384848       0.00000000
Si       2.71267596       2.71582482       0.00083148       0.00000000
Si      -0.00228060      -2.71688108      -2.71370990       0.00000000
Si      -2.71742124      -0.00139768      -2.71343274       0.00000000
