10
Lattice="16.28999089631971 0.0 0.0 0.0 16.28999089631971 0.0 0.0 0.0 34.64500226677339" Properties=species:S:1:pos:R:3:initial_magmoms:R:1 pbc="T T T"
Si      -0.38379240       2.22299856       0.66206636       0.00000000
Si      -2.17543176      -0.90394839       0.08903771       0.00000000
Si       1.51412292      -1.06481214       1.54651912       0.00000000
Si       0.51232050       0.45892188      -2.31951884       0.00000000
Si      -0.96943419       2.32753149      -1.69289434       0.00000000
Si      -1.42630353      -2.88433088      -1.05736606       0.00000000
Si      -0.23814351      -1.79793544      -2.90706376       0.00000000
Si       1.24901946       0.36393489       3.41194567       0.00000000
Si      -2.59564860      -1.08458820       2.42840815       0.00000000
Si       2.86993962       0.37760220      -2.61282360       0.00000000
