10
Lattice="16.28999089631971 0.0 0.0 0.0 16.28999089631971 0.0 0.0 0.0 34.64500226677339" Properties=species:S:1:pos:R:3:initial_magmoms:R:1 pbc="T T T"
Si      -1.35703845      -1.35671265      -1.35697621       0.00000000
Si       1.35734796      -1.35692442       1.35798091       0.00000000
Si      -1.35765747       1.35715248       1.35808485       0.00000000
Si       1.35897696       1.35928647      -1.35680298       0.00000000
Si       2.70951570      -0.00089595      -2.71696653       0.00000000
Si      -0.00158013      -2.71243161      -2.71412564       0.00000000
Si      -0.00011403      -2.71233387       2.71513034       0.00000000
Si      -2.71300176       0.00117288       2.71488783       0.00000000
Si       2.71401174      -2.71415835       0.00079684       0.00000000
Si       2.71446786       2.71542897       0.00031181       0.00000000
