10
Lattice="16.28999089631971 0.0 0.0 0.0 16.28999089631971 0.0 0.0 0.0 34.64500226677339" Properties=species:S:1:pos:R:3:initial_magmoms:R:1 pbc="T T T"
Si      -0.57049209      -1.89260478       1.21770322       0.00000000
Si      -1.33068123      -0.12852810      -1.99028720       0.00000000
Si       2.37847032      -0.40477392      -0.14935469       0.00000000
Si      -0.64223325       1.91003508       1.43794162       0.00000000
Si       0.67166928      -3.33907533      -0.34374790       0.00000000
Si      -0.16413804      -1.04343966       3.47994142       0.00000000
Si      -2.78550855      -2.37268737       0.54798031       0.00000000
Si      -1.94254992       2.17728882      -2.33784606       0.00000000
Si      -3.05628093       1.88328690       1.17931654       0.00000000
Si       2.52014445      -2.64231945       0.98915001       0.00000000
