10
Lattice="16.28999089631971 0.0 0.0 0.0 16.28999089631971 0.0 0.0 0.0 34.64500226677339" Properties=species:S:1:pos:R:3:initial_magmoms:R:1 pbc="T T T"
Si      -1.35045729      -1.34905635      -1.37949547       0.00000000
Si       1.46929284      -1.22891760       1.38029231       0.00000000
Si       1.36746405       1.36324494      -1.37523413       0.00000000
Si      -1.25172360       1.40318802       1.48263370       0.00000000
Si       2.40775974       0.64179342       2.66319746       0.00000000
Si       0.62441199       2.36933163       2.89209712       0.00000000
Si      -2.70562239      -2.68701921      -0.00270231       0.00000000
Si      -2.67879276       2.72792340      -0.00148974       0.00000000
Si       2.73559599      -2.69770545       0.00152438       0.00000000
Si      -2.70482418       0.00840564      -2.73792677       0.00000000
