10
Lattice="16.28999089631971 0.0 0.0 0.0 16.28999089631971 0.0 0.0 0.0 34.64500226677339" Properties=species:S:1:pos:R:3:initial_magmoms:R:1 pbc="T T T"
Si       0.64635462       1.73377728      -1.39577863       0.00000000
Si       1.07852832      -2.06021259       0.18011947       0.00000000
Si       1.21810104       1.33115364       1.73564629       0.00000000
Si      -2.02421169      -0.89551017      -1.34606303       0.00000000
Si       1.91265777       0.26498943      -2.77454656       0.00000000
Si       0.82577268      -2.11810725       2.62002976       0.00000000
Si      -1.78245180      -2.10647619       2.43443638       0.00000000
Si       3.42823050      -0.86307678      -1.24340983       0.00000000
Si      -0.32534388       2.97031860       2.31744014       0.00000000
Si      -0.83271222      -2.45276901      -2.77894647       0.00000000
