10
Lattice="16.28999089631971 0.0 0.0 0.0 16.28999089631971 0.0 0.0 0.0 34.64500226677339" Properties=species:S:1:pos:R:3:initial_magmoms:R:1 pbc="T T T"
Si       1.56799395       0.96959709      -1.43662511       0.00000000
Si      -1.01568150      -1.66265123      -1.40811226       0.00000000
Si      -1.80116901       1.92322998       0.16865197       0.00000000
Si       1.82446371      -0.83972506       1.95356348       0.00000000
Si       0.19380213       2.33585568      -2.82349997       0.00000000
Si      -2.52160078      -0.41127689      -2.83531393       0.00000000
Si      -1.75376511      -3.43416725       0.03422928       0.00000000
Si       3.34207269       1.93965030      -0.17675890       0.00000000
Si       2.57492772       1.41713226       2.54110840       0.00000000
Si      -3.01651378       0.01265733       2.44995735       0.00000000
