10
Lattice="16.28999089631971 0.0 0.0 0.0 16.28999089631971 0.0 0.0 0.0 34.64500226677339" Properties=species:S:1:pos:R:3:initial_magmoms:R:1 pbc="T T T"
Si       1.49584554       1.38992796      -1.08653717       0.00000000
Si      -0.96995547      -1.66628781      -1.29011132       0.00000000
Si      -1.58824242       1.33866333       1.05809361       0.00000000
Si       0.97076997      -1.29011913       1.68617320       0.00000000
Si      -2.16295362      -0.04665456       2.89244357       0.00000000
Si      -2.93729225      -2.13060168      -0.12395989       0.00000000
Si       3.53882331       1.15150752       0.06437045       0.00000000
Si      -3.21892029       1.87971939      -0.55244951       0.00000000
Si       0.64796733      -3.39221331      -1.56609356       0.00000000
Si       1.53523476       0.04517217       3.54768486       0.00000000
