10
Lattice="16.28999089631971 0.0 0.0 0.0 16.28999089631971 0.0 0.0 0.0 34.64500226677339" Properties=species:S:1:pos:R:3:initial_magmoms:R:1 pbc="T T T"
Si       1.84982724       1.40019066      -0.28211441       0.00000000
Si       0.41759415      -2.32841115      -0.21712035       0.00000000
Si      -0.84473424       0.47811150      -2.19725656       0.00000000
Si      -1.69246584       0.91914696       1.47431890       0.00000000
Si      -2.84133438       1.55694933      -1.69840290       0.00000000
Si      -2.27686959       2.89224063       0.16310876       0.00000000
Si       2.48290551       1.14064209      -2.51865843       0.00000000
Si      -1.72398699      -3.36005685      -0.30563838       0.00000000
Si      -3.65330943      -0.49629114       1.27950994       0.00000000
Si       1.60098120      -2.84701959      -2.22576941       0.00000000
