10
Lattice="16.28999089631971 0.0 0.0 0.0 16.28999089631971 0.0 0.0 0.0 34.64500226677339" Properties=species:S:1:pos:R:3:initial_magmoms:R:1 pbc="T T T"
Si       1.61533269       1.13655330       1.24869285       0.00000000
Si      -1.12772086      -1.53747789       1.35096841       0.00000000
Si       0.89565678      -1.56355004      -1.49025738       0.00000000
Si      -0.15047073       2.22039216      -1.92214222       0.00000000
Si       0.92623311       0.38297790      -3.00078032       0.00000000
Si       0.23618871       2.51589276       2.61608335       0.00000000
Si      -2.48066613      -0.20035071       2.65747029       0.00000000
Si      -1.13376119      -2.94861122      -1.82333462       0.00000000
Si      -2.74340609      -2.45924917      -0.08484743       0.00000000
Si       2.73764853      -2.70892926      -0.30588267       0.00000000
