10
Lattice="16.28999089631971 0.0 0.0 0.0 16.28999089631971 0.0 0.0 0.0 34.64500226677339" Properties=species:S:1:pos:R:3:initial_magmoms:R:1 pbc="T T T"
Si      -0.83900016      -2.10590604       0.56457527       0.00000000
Si       1.82540853      -0.69341643      -1.32098003       0.00000000
Si       0.87620652       1.00864422       1.94964859       0.00000000
Si      -1.52368515       1.45694502      -1.25089315       0.00000000
Si      -0.76274667       0.28442340       3.45379685       0.00000000
Si       1.78614963       1.22196177      -2.83586825       0.00000000
Si      -0.46032282      -2.06550684       2.95452744       0.00000000
Si      -0.45043479      -3.41169615      -1.45626884       0.00000000
Si      -3.15832149      -2.08217151       0.30130775       0.00000000
Si       1.41674130       3.27646376       1.35299203       0.00000000
