10
Lattice="16.28999089631971 0.0 0.0 0.0 16.28999089631971 0.0 0.0 0.0 34.64500226677339" Properties=species:S:1:pos:R:3:initial_magmoms:R:1 pbc="T T T"
Si      -0.23478777      -2.04931458      -1.27448641       0.00000000
Si      -1.06824933       1.06363016       1.90135343       0.00000000
Si      -0.42319791       1.07622884      -2.13939938       0.00000000
Si       2.53806345      -0.48923757       0.27553186       0.00000000
Si       2.09243421      -1.64998152      -1.69462659       0.00000000
Si       1.47747042       0.06361245      -3.24429841       0.00000000
Si       0.57751308       3.18914936      -1.68527243       0.00000000
Si      -2.91024108       2.20900938       0.71697872       0.00000000
Si       2.58893712      -2.14239564       2.04273977       0.00000000
Si       0.54232668       2.27499365       3.30546562       0.00000000
