10
Lattice="16.28999089631971 0.0 0.0 0.0 16.28999089631971 0.0 0.0 0.0 34.64500226677339" Properties=species:S:1:pos:R:3:initial_magmoms:R:1 pbc="T T T"
Si      -1.05597970      -1.35184194      -1.55147336       0.00000000
Si       0.72689238       1.90055430      -1.30206385       0.00000000
Si      -1.30762762       0.69069600       1.91153907       0.00000000
Si       1.84770954      -1.31023728       0.94823424       0.00000000
Si      -0.31271424       2.80039761       2.30361678       0.00000000
Si       3.05370711       1.92124260      -0.83369780       0.00000000
Si      -0.20662236       3.75476355       0.15344280       0.00000000
Si      -1.49563051      -3.42737432      -0.58931182       0.00000000
Si       0.15936507       0.55873071      -3.83277874       0.00000000
Si       1.42749270      -1.49087709       3.28760468       0.00000000
