10
Lattice="16.28999089631971 0.0 0.0 0.0 16.28999089631971 0.0 0.0 0.0 34.64500226677339" Properties=species:S:1:pos:R:3:initial_magmoms:R:1 pbc="T T T"
Si      -1.46377053       1.16093943      -1.46732060       0.00000000
Si       1.15404876       1.75614345       1.29031919       0.00000000
Si       1.22994387      -1.55382002      -1.46988433       0.00000000
Si      -1.88900469      -0.90026685       1.34097021       0.00000000
Si      -0.12390174       2.50238835      -2.84733575       0.00000000
Si      -2.82411585       2.56903074      -0.05778790       0.00000000
Si       2.76208353       2.65882122      -0.10778066       0.00000000
Si       2.59538796      -0.21598911      -2.84331693       0.00000000
Si       2.61638577      -2.88494955      -0.09776825       0.00000000
Si      -2.77211817      -2.86001868      -0.01708000       0.00000000
