10
Lattice="16.28999089631971 0.0 0.0 0.0 16.28999089631971 0.0 0.0 0.0 34.64500226677339" Properties=species:S:1:pos:R:3:initial_magmoms:R:1 pbc="T T T"
Si      -1.56639753      -1.74440650      -0.29385907       0.00000000
Si       0.86376096       0.07542270       2.22996146       0.00000000
Si       1.99394487      -0.85960701      -1.00851658       0.00000000
Si      -0.60256710       2.15050806      -0.91857810       0.00000000
Si       2.14591428       2.00080296       1.67491357       0.00000000
Si       3.29220900       1.08269856      -0.37582919       0.00000000
Si      -0.15876234      -3.44426705       0.67997784       0.00000000
Si      -1.63572777      -2.02344606      -2.69680313       0.00000000
Si       1.87905150      -3.31660232      -0.52999954       0.00000000
Si       1.82772171      -0.87014664      -3.32682285       0.00000000
