10
Lattice="16.28999089631971 0.0 0.0 0.0 16.28999089631971 0.0 0.0 0.0 34.64500226677339" Properties=species:S:1:pos:R:3:initial_magmoms:R:1 pbc="T T T"
Si      -0.21007584      -2.19679514       0.71285597       0.00000000
Si       0.42021684       0.18063981      -2.33937044       0.00000000
Si      -2.21552797       0.80254314       0.47013294       0.00000000
Si       1.49810985       1.06057674       1.60475740       0.00000000
Si       0.19447002       2.99661066       1.90294710       0.00000000
Si      -1.34762283      -1.88225153       2.80493024       0.00000000
Si       2.59564860       1.08458820      -2.42840815       0.00000000
Si      -1.94167352       1.98821079       2.50538938       0.00000000
Si       1.93028355      -2.97226430       1.21891580       0.00000000
Si      -2.73512032       2.18157309      -1.37606561       0.00000000
