10
Lattice="16.28999089631971 0.0 0.0 0.0 16.28999089631971 0.0 0.0 0.0 34.64500226677339" Properties=species:S:1:pos:R:3:initial_magmoms:R:1 pbc="T T T"
Si       1.03022847       0.14038722       2.09612774       0.00000000
Si      -1.23276204       1.95494661      -0.37177573       0.00000000
Si      -0.83991240      -2.07868545      -0.69317759       0.00000000
Si       1.62440622       2.50580925      -0.42370861       0.00000000
Si       1.17217953       1.40367672      -2.44888335       0.00000000
Si       2.73654081       1.68668289       1.46447971       0.00000000
Si      -0.98000640       2.01284127      -2.81168602       0.00000000
Si      -2.29845384       1.30406337       2.45602023       0.00000000
Si      -3.19753152      -1.99736577      -0.39987284       0.00000000
Si       2.47247991      -0.48812985      -3.01016735       0.00000000
