10
Lattice="16.28999089631971 0.0 0.0 0.0 16.28999089631971 0.0 0.0 0.0 34.64500226677339" Properties=species:S:1:pos:R:3:initial_magmoms:R:1 pbc="T T T"
Si       1.36000323      -1.35211887      -1.36175722       0.00000000
Si      -1.35809730       1.36246302      -1.36085645       0.00000000
Si      -1.37637468      -1.34741106       1.37357117       0.00000000
Si       1.36899531       1.37034738       1.37797109       0.00000000
Si      -2.56787415       0.20984778       2.80645462       0.00000000
Si       2.70940167      -2.70958086      -0.00349915       0.00000000
Si       2.71088406       2.71854036      -0.00242515       0.00000000
Si      -0.00039096      -2.71132389      -2.71859485       0.00000000
Si      -2.71748151      -2.71308321      -0.00405347       0.00000000
Si       0.00918756      -2.64293847       2.78604870       0.00000000
