10
Lattice="16.28999089631971 0.0 0.0 0.0 16.28999089631971 0.0 0.0 0.0 34.64500226677339" Properties=species:S:1:pos:R:3:initial_magmoms:R:1 pbc="T T T"
Si       1.34188875       1.34819298      -1.38039624       0.00000000
Si      -1.36899531      -1.37034738      -1.37797109       0.00000000
Si      -1.26630315       1.46878785       1.37876793       0.00000000
Si       1.51557273      -1.12806621       1.53113673       0.00000000
Si      -1.91265777      -0.26498943       2.77454656       0.00000000
Si       2.71046052      -2.70130554      -0.00252909       0.00000000
Si       2.69174331       2.72583828      -0.00904235       0.00000000
Si      -2.73559599       2.69770545      -0.00152438       0.00000000
Si       2.70607851      -0.00684180      -2.73931257       0.00000000
Si      -0.00988803       2.70589932      -2.73955509       0.00000000
