10
Lattice="16.28999089631971 0.0 0.0 0.0 16.28999089631971 0.0 0.0 0.0 34.64500226677339" Properties=species:S:1:pos:R:3:initial_magmoms:R:1 pbc="T T T"
Si       2.27284596       0.09236430       0.62038840       0.00000000
Si      -1.26123696      -1.38666996       1.47532360       0.00000000
Si       0.72153297      -0.65497203      -2.20796187       0.00000000
Si      -0.15840396       2.40598413      -0.34662344       0.00000000
Si       1.79102034       2.66843232      -1.73845254       0.00000000
Si       3.29082435       0.89342505      -1.33334830       0.00000000
Si       2.25947187       1.86740415       2.26044908       0.00000000
Si      -0.94938120       0.13561425      -3.60990732       0.00000000
Si       0.54022527       3.39330474       1.64827155       0.00000000
Si      -1.32962238      -0.32088042       3.57107025       0.00000000
