10
Lattice="16.28999089631971 0.0 0.0 0.0 16.28999089631971 0.0 0.0 0.0 34.64500226677339" Properties=species:S:1:pos:R:3:initial_magmoms:R:1 pbc="T T T"
Si       1.58830758       0.70698600       1.58992933       0.00000000
Si       0.83852775      -2.07989091      -0.75914171       0.00000000
Si      -0.60830118       1.98524601      -1.24559246       0.00000000
Si      -1.66348593      -1.37898108       1.32981451       0.00000000
Si       1.18166031      -1.10271897      -2.85204747       0.00000000
Si       1.66563621       2.75188599      -1.43350706       0.00000000
Si      -0.66582117      -3.44165346       0.36186725       0.00000000
Si      -0.09399330       0.92809017       3.53784567       0.00000000
Si       3.23030700       1.95976845       0.18992401       0.00000000
Si      -0.92115063      -0.73762749      -3.73674274       0.00000000
