10
Lattice="16.28999089631971 0.0 0.0 0.0 16.28999089631971 0.0 0.0 0.0 34.64500226677339" Properties=species:S:1:pos:R:3:initial_magmoms:R:1 pbc="T T T"
Si       1.35812988      -1.35571896       1.36414773       0.00000000
Si      -1.35752715       1.35920502       1.36328160       0.00000000
Si       1.36536264       1.37005416      -1.35964041       0.00000000
Si      -1.36259334      -1.36073628      -1.38783453       0.00000000
Si       2.71151937       2.71314837       0.00495424       0.00000000
Si       2.71099809      -2.71603170       0.00221728       0.00000000
Si      -2.71852407       2.70954828       0.00516211       0.00000000
Si      -2.71744893      -2.71472850      -0.00045039       0.00000000
Si       2.71296918       0.00055386       2.72074284       0.00000000
Si      -0.00115659       2.71432125       2.72050032       0.00000000
