10
Lattice="16.28999089631971 0.0 0.0 0.0 16.28999089631971 0.0 0.0 0.0 34.64500226677339" Properties=species:S:1:pos:R:3:initial_magmoms:R:1 pbc="T T T"
Si       1.35177678      -1.35770634       1.35915884       0.00000000
Si       1.35508365       1.35738054      -1.35694156       0.00000000
Si      -1.35959598      -1.35757602      -1.35701085       0.00000000
Si      -1.35824391       1.35505107       1.36279657       0.00000000
Si       2.71208952       0.00034209      -2.71426422       0.00000000
Si      -0.00203625       2.71410948      -2.71450673       0.00000000
Si       2.71596654      -2.71274112       0.00024252       0.00000000
Si      -0.00237834      -2.71521720      -2.71467996       0.00000000
Si      -2.71720458      -2.71378368       0.00072755       0.00000000
Si      -2.71723716      -0.00013032      -2.71474925       0.00000000
