10
Lattice="16.28999089631971 0.0 0.0 0.0 16.28999089631971 0.0 0.0 0.0 34.64500226677339" Properties=species:S:1:pos:R:3:initial_magmoms:R:1 pbc="T T T"
Si       1.81012851       0.96417252      -1.18402826       0.00000000
Si       1.61109729      -0.94371228       1.47733301       0.00000000
Si      -0.93846690      -1.87071102      -1.28290515       0.00000000
Si      -1.78334775       1.72753821       0.22889966       0.00000000
Si      -0.36672048      -2.27333466       1.84851977       0.00000000
Si      -1.91016540      -0.63416970       2.43031362       0.00000000
Si       0.33036120       2.10176838      -2.66991859       0.00000000
Si      -2.40775974      -0.64179342      -2.66319746       0.00000000
Si      -0.97997382       3.50815675      -1.21288756       0.00000000
Si      -3.65948334       0.76139460      -1.18056376       0.00000000
