10
Lattice="16.28999089631971 0.0 0.0 0.0 16.28999089631971 0.0 0.0 0.0 34.64500226677339" Properties=species:S:1:pos:R:3:initial_magmoms:R:1 pbc="T T T"
Si       1.49980401      -1.77500727       0.40510424       0.00000000
Si       1.33957557       1.98879723      -0.22193601       0.00000000
Si      -1.94942430      -0.26244819       1.39182910       0.00000000
Si      -0.76258377      -1.20319569      -2.24264154       0.00000000
Si      -1.06948737      -3.32340435      -0.46950933       0.00000000
Si       0.48182562      -2.57606802       2.35884094       0.00000000
Si      -1.79102034      -2.66843232       1.73845254       0.00000000
Si      -1.25079507       0.72487242       3.38672409       0.00000000
Si      -3.68702973       0.86198535       0.17689748       0.00000000
Si       3.47092659      -0.88164738       1.33237824       0.00000000
