10
Lattice="16.28999089631971 0.0 0.0 0.0 16.28999089631971 0.0 0.0 0.0 34.64500226677339" Properties=species:S:1:pos:R:3:initial_magmoms:R:1 pbc="T T T"
Si      -0.69862923      -0.98732061      -1.99489499       0.00000000
Si      -1.78264728       0.60367482       1.39189839       0.00000000
Si       0.82486044       2.17370502      -0.30733599       0.00000000
Si       1.71924660      -1.52590059       0.61217753       0.00000000
Si       1.94771385       2.10126339       1.80701504       0.00000000
Si       3.26306619       0.17568765       1.37914902       0.00000000
Si       1.25079507      -0.72487242      -3.38672409       0.00000000
Si      -2.67898824      -1.47339792       2.21658848       0.00000000
Si      -0.54022527      -3.39330474      -1.64827155       0.00000000
Si      -3.38543667       1.83917358       0.06080201       0.00000000
