10
Lattice="16.28999089631971 0.0 0.0 0.0 16.28999089631971 0.0 0.0 0.0 34.64500226677339" Properties=species:S:1:pos:R:3:initial_magmoms:R:1 pbc="T T T"
Si      -0.89565678       1.56355004       1.49025738       0.00000000
Si       0.03057633       1.94652794      -1.51052294       0.00000000
Si       1.84199175      -1.14537922       1.18437471       0.00000000
Si      -2.02941797      -1.38506118      -0.33307724       0.00000000
Si      -1.90690903      -0.69893711      -2.65030951       0.00000000
Si       2.24559279       2.42661053      -0.84080003       0.00000000
Si      -2.02337764       0.02607214       2.84122579       0.00000000
Si       2.91024108      -2.20900938      -0.71697872       0.00000000
Si       0.75354282      -2.63541642       2.71575192       0.00000000
Si       0.71967591       2.70010334       2.73895022       0.00000000
