10
Lattice="16.28999089631971 0.0 0.0 0.0 16.28999089631971 0.0 0.0 0.0 34.64500226677339" Properties=species:S:1:pos:R:3:initial_magmoms:R:1 pbc="T T T"
Si      -1.82635335      -0.77084280       1.27147229       0.00000000
Si       1.42195410      -1.08230760       1.58809315       0.00000000
Si       0.73458126      -1.63274670      -1.59516073       0.00000000
Si      -0.13194900       2.44403757      -0.41459697       0.00000000
Si       3.42112806      -0.80430246       0.41050886       0.00000000
Si       1.10674260       0.43258095       3.33856751       0.00000000
Si      -1.48004424      -3.05693253       1.03533183       0.00000000
Si      -0.84696597      -3.31648110      -1.20121219       0.00000000
Si       3.31955991       1.37652129      -0.52688149       0.00000000
Si       0.79508232      -0.51104988      -3.60717036       0.00000000
