10
Lattice="16.28999089631971 0.0 0.0 0.0 16.28999089631971 0.0 0.0 0.0 34.64500226677339" Properties=species:S:1:pos:R:3:initial_magmoms:R:1 pbc="T T T"
Si       1.64553435       1.26961523       1.06124630       0.00000000
Si      -1.38644190       1.33112953      -1.37211608       0.00000000
Si      -1.16897040      -1.21257907       1.68087251       0.00000000
Si       1.35418770      -1.40256934      -1.36785474       0.00000000
Si      -2.59840161      -2.51905336       0.10954756       0.00000000
Si      -0.02099781       2.66896044      -2.74554867       0.00000000
Si       2.69322357      -0.04536554      -2.74863208       0.00000000
Si      -2.74157442      -0.04421140      -2.74929034       0.00000000
Si      -0.02028105      -2.76086212      -2.74849350       0.00000000
Si      -2.61638577       2.88494955       0.09776825       0.00000000
