10
Lattice="16.28999089631971 0.0 0.0 0.0 16.28999089631971 0.0 0.0 0.0 34.64500226677339" Properties=species:S:1:pos:R:3:initial_magmoms:R:1 pbc="T T T"
Si      -0.16622316      -0.01053963      -2.31830627       0.00000000
Si      -1.99394487       0.85960701       1.00851658       0.00000000
Si       1.29826413       1.94230557       0.63268738       0.00000000
Si      -0.11489337      -2.45699531       0.47851704       0.00000000
Si      -1.13018391       0.93502971       3.23847804       0.00000000
Si      -3.56034240      -0.88479949       0.71465751       0.00000000
Si      -2.15270721      -2.58466004       1.68849442       0.00000000
Si       1.05081903       3.38139675      -1.29596632       0.00000000
Si      -1.56045168      -1.85284904      -2.97049880       0.00000000
Si       1.85464908       0.16070085      -3.37380150       0.00000000
