10
Lattice="16.28999089631971 0.0 0.0 0.0 16.28999089631971 0.0 0.0 0.0 34.64500226677339" Properties=species:S:1:pos:R:3:initial_magmoms:R:1 pbc="T T T"
Si       1.35280305       1.33819092       1.38290108       0.00000000
Si       1.37914398      -1.37933946      -1.36739050       0.00000000
Si      -1.36286701      -1.37937204       1.38719706       0.00000000
Si      -1.32294348       1.49221287      -1.52087141       0.00000000
Si      -0.23618871      -2.51589276      -2.61608335       0.00000000
Si      -2.71294379       2.70159876       0.00524179       0.00000000
Si       2.72111418       2.69350263      -0.02322949       0.00000000
Si      -2.71685484      -2.71624347       0.04138694       0.00000000
Si      -0.00296478       2.69599500       2.74645984       0.00000000
Si       2.71319724      -0.01998783       2.74611339       0.00000000
