10
Lattice="16.28999089631971 0.0 0.0 0.0 16.28999089631971 0.0 0.0 0.0 34.64500226677339" Properties=species:S:1:pos:R:3:initial_magmoms:R:1 pbc="T T T"
Si       1.45445265      -1.17954750       1.43905026       0.00000000
Si      -2.19595716       0.03767877       0.98391861       0.00000000
Si      -0.50977926      -1.09815940      -2.09591987       0.00000000
Si       1.40646231       1.98775467      -0.23274526       0.00000000
Si      -2.10492864       0.63776979      -2.67421457       0.00000000
Si       3.59320652      -0.84846465       0.41431981       0.00000000
Si       3.44133159       1.01980287      -1.06543835       0.00000000
Si      -3.66958314       0.74963322      -0.79073797       0.00000000
Si       1.43322678       2.97753507       1.95889881       0.00000000
Si       0.76732416      -3.42098864       1.78619338       0.00000000
