10
Lattice="16.28999089631971 0.0 0.0 0.0 16.28999089631971 0.0 0.0 0.0 34.64500226677339" Properties=species:S:1:pos:R:3:initial_magmoms:R:1 pbc="T T T"
Si      -1.45445265       1.17954750      -1.43905026       0.00000000
Si      -0.68712849      -2.24144114       0.34714312       0.00000000
Si       2.13875387       0.33108285      -1.02473045       0.00000000
Si       0.37804203       0.75898857       2.25632632       0.00000000
Si      -0.04799034       3.16730217      -1.67179552       0.00000000
Si       2.58092963      -1.67111195      -2.20494776       0.00000000
Si      -2.68698663      -2.23815056       1.63552218       0.00000000
Si      -3.65040981       1.21722627      -0.45513165       0.00000000
Si       2.04376525      -0.74979286       3.20643140       0.00000000
Si       1.98687894       2.19935037      -2.50448861       0.00000000
