10
Lattice="16.28999089631971 0.0 0.0 0.0 16.28999089631971 0.0 0.0 0.0 34.64500226677339" Properties=species:S:1:pos:R:3:initial_magmoms:R:1 pbc="T T T"
Si      -1.34627076      -1.33245684       1.37800574       0.00000000
Si      -1.35065277       1.36200690      -1.35877775       0.00000000
Si       1.36233270      -1.35283563      -1.35784233       0.00000000
Si       1.36184400       1.36391283       1.36355876       0.00000000
Si       0.16966035      -2.55464667       2.73861967       0.00000000
Si      -2.71140534       0.00179190      -2.71596183       0.00000000
Si      -2.71632492      -2.71107954      -0.00093542       0.00000000
Si       0.00363267      -2.71280628      -2.71596183       0.00000000
Si       2.71748832      -2.71287144       0.00045039       0.00000000
Si      -2.71484253       2.71704168       0.00013858       0.00000000
