10
Lattice="16.28999089631971 0.0 0.0 0.0 16.28999089631971 0.0 0.0 0.0 34.64500226677339" Properties=species:S:1:pos:R:3:initial_magmoms:R:1 pbc="T T T"
Si      -2.05695459       1.00264950       0.43528005       0.00000000
Si       0.72624078      -1.12221810       1.93883935       0.00000000
Si       0.82886778       2.17930878      -0.59159839       0.00000000
Si       0.10412568      -1.74241098      -1.74649019       0.00000000
Si       2.62220034       1.11583242      -1.74548548       0.00000000
Si       1.36756963      -0.35575731      -3.21980438       0.00000000
Si      -0.71996913      -2.98501218       1.88479311       0.00000000
Si      -2.96349309       1.50496794      -1.70401539       0.00000000
Si      -3.77312238      -0.99087183       0.75086155       0.00000000
Si      -1.99775673       2.66533722       2.19496999       0.00000000
