10
Lattice="16.28999089631971 0.0 0.0 0.0 16.28999089631971 0.0 0.0 0.0 34.64500226677339" Properties=species:S:1:pos:R:3:initial_magmoms:R:1 pbc="T T T"
Si       0.02059056      -0.44134497      -2.27808340       0.00000000
Si      -1.79584218      -0.51285807       1.45270040       0.00000000
Si       1.10642399       2.12082768       0.12721652       0.00000000
Si       1.38805202      -1.88949339       0.55570615       0.00000000
Si       2.38471658      -0.58039641      -2.61881718       0.00000000
Si       2.73710186       1.57977162       1.73775964       0.00000000
Si      -1.40154273       1.04686056       3.15730476       0.00000000
Si       3.35538881      -1.42517952      -0.61044528       0.00000000
Si      -0.81450000      -2.60978832      -2.50694841       0.00000000
Si       0.44951345      -3.68103501      -0.73994837       0.00000000
