10
Lattice="16.28999089631971 0.0 0.0 0.0 16.28999089631971 0.0 0.0 0.0 34.64500226677339" Properties=species:S:1:pos:R:3:initial_magmoms:R:1 pbc="T T T"
Si      -0.27230364      -1.03744494      -2.09134673       0.00000000
Si      -2.03781384      -0.12766473       1.20997738       0.00000000
Si       1.39224114      -1.84665069       0.73218789       0.00000000
Si       0.11489337       2.45699531      -0.47851704       0.00000000
Si       3.26884476      -0.50132475       0.39432964       0.00000000
Si      -0.91496043      -0.20010636       3.32432841       0.00000000
Si       0.40039191      -2.12568210       2.89646239       0.00000000
Si       2.67059889       0.80077635       2.37841538       0.00000000
Si      -0.05132979       2.44645568      -2.79682331       0.00000000
Si       0.57985884       1.65609583       3.33825570       0.00000000
