10
Lattice="16.28999089631971 0.0 0.0 0.0 16.28999089631971 0.0 0.0 0.0 34.64500226677339" Properties=species:S:1:pos:R:3:initial_magmoms:R:1 pbc="T T T"
Si       2.30259869       0.46574739       0.31488860       0.00000000
Si      -1.18180692      -0.31604229       2.03452890       0.00000000
Si      -1.21060764       1.91484063      -0.71933458       0.00000000
Si      -0.32630499      -1.69543062      -1.67931349       0.00000000
Si      -1.39562946       0.03003876      -2.88218864       0.00000000
Si       0.50866569       3.44119734       0.55799272       0.00000000
Si      -3.15292950      -1.20940218       1.10725489       0.00000000
Si       2.60487593       2.68499925      -0.27296813       0.00000000
Si      -0.13610295      -2.01688119       3.28334334       0.00000000
Si       2.96649764       0.03883536       2.50133592       0.00000000
