10
Lattice="16.28999089631971 0.0 0.0 0.0 16.28999089631971 0.0 0.0 0.0 34.64500226677339" Properties=species:S:1:pos:R:3:initial_magmoms:R:1 pbc="T T T"
Si      -1.31535234       1.92557574       0.42786602       0.00000000
Si       0.99184923       0.27903141      -2.16427450       0.00000000
Si      -1.54381959      -1.70158824      -0.76697149       0.00000000
Si       0.98065800       0.18598293       2.31331738       0.00000000
Si       2.71609057       1.10434797       1.04849693       0.00000000
Si      -1.60432065      -2.82328506       1.24503814       0.00000000
Si      -3.26306619      -0.17568765      -1.37914902       0.00000000
Si      -2.43820575       1.99801737      -1.68648501       0.00000000
Si      -0.40039191       2.12568210      -2.89646239       0.00000000
Si      -2.47085091       1.25349921       2.42560190       0.00000000
