10
Lattice="16.28999089631971 0.0 0.0 0.0 16.28999089631971 0.0 0.0 0.0 34.64500226677339" Properties=species:S:1:pos:R:3:initial_magmoms:R:1 pbc="T T T"
Si       0.41928831       0.62428167       2.24278012       0.00000000
Si       1.99985814      -0.00329058      -1.28837906       0.00000000
Si      -1.57092615       1.22751570      -1.30476616       0.00000000
Si      -0.68887152      -2.22019668       0.56648075       0.00000000
Si      -1.92756312      -0.20874006      -3.18668373       0.00000000
Si       0.87579927      -3.01231422       2.18991182       0.00000000
Si       1.31864292       2.81566853       2.26124592       0.00000000
Si       1.52394579      -1.27625634      -3.29896825       0.00000000
Si       2.68698663       2.23815056      -1.63552218       0.00000000
Si      -3.48912252       1.66368045       0.09139357       0.00000000
