10
Lattice="16.28999089631971 0.0 0.0 0.0 16.28999089631971 0.0 0.0 0.0 34.64500226677339" Properties=species:S:1:pos:R:3:initial_magmoms:R:1 pbc="T T T"
Si      -2.17450323       0.81912636      -0.18171314       0.00000000
Si       0.43096824      -0.16446384       2.29509410       0.00000000
Si       1.24294329       1.88877663      -0.68281873       0.00000000
Si       0.95939955      -1.99371681      -0.87374745       0.00000000
Si       3.23954343       0.80993880      -1.18167240       0.00000000
Si       2.47998960      -1.05068871      -2.37124386       0.00000000
Si       2.39181183       1.25097426       2.48990306       0.00000000
Si      -1.89078030       3.13224120       0.52345163       0.00000000
Si       1.04283693      -2.47028076       2.64265296       0.00000000
Si      -2.66511893       1.04829408      -2.49295182       0.00000000
