10
Lattice="16.28999089631971 0.0 0.0 0.0 16.28999089631971 0.0 0.0 0.0 34.64500226677339" Properties=species:S:1:pos:R:3:initial_magmoms:R:1 pbc="T T T"
Si      -2.13489572       0.38683863      -0.81776109       0.00000000
Si       1.07670384      -1.83741426      -1.07863810       0.00000000
Si       0.80593146       2.41856001      -0.44730187       0.00000000
Si       0.15047073      -2.22039216       1.92214222       0.00000000
Si      -2.74435091       0.73318032       1.73464159       0.00000000
Si       3.29172030      -1.35733167      -0.40891519       0.00000000
Si      -0.93628404       1.78771347       3.01735415       0.00000000
Si      -1.72391043      -0.70174062      -3.11995742       0.00000000
Si       0.68494563      -1.18809486      -3.41000554       0.00000000
Si       1.76580342      -1.08383886       3.17083506       0.00000000
