10
Lattice="16.28999089631971 0.0 0.0 0.0 16.28999089631971 0.0 0.0 0.0 34.64500226677339" Properties=species:S:1:pos:R:3:initial_magmoms:R:1 pbc="T T T"
Si       1.35621906       1.35584928      -1.35805020       0.00000000
Si      -1.36057121       1.35821133       1.35742659       0.00000000
Si      -1.35910574      -1.35943308      -1.35863917       0.00000000
Si       1.35579552      -1.36482507       1.36161864       0.00000000
Si      -0.00040399       2.71226871      -2.71516499       0.00000000
Si       2.71314348      -0.00151497      -2.71544215       0.00000000
Si      -2.71491976      -2.71420722       0.00041574       0.00000000
Si       2.71558698       2.71358820      -0.00065826       0.00000000
Si      -2.71638586       2.71345788      -0.00031181       0.00000000
Si      -2.71583200      -0.00216657      -2.71537286       0.00000000
