10
Lattice="16.28999089631971 0.0 0.0 0.0 16.28999089631971 0.0 0.0 0.0 34.64500226677339" Properties=species:S:1:pos:R:3:initial_magmoms:R:1 pbc="T T T"
Si       1.38311060       1.21717251      -1.44587533       0.00000000
Si      -1.79333256       1.06347636       1.15388709       0.00000000
Si       1.68460592      -0.54985266       1.60939983       0.00000000
Si      -1.25463071      -1.47158973      -1.47431890       0.00000000
Si      -2.62220034      -1.11583242       1.74548548       0.00000000
Si       2.36738497       1.76981076       2.03352419       0.00000000
Si       2.35177916       2.90968722      -0.07805523       0.00000000
Si      -0.03243013       2.43375858      -2.86102053       0.00000000
Si      -2.51807466      -2.85824340      -0.00100471       0.00000000
Si       2.92660438      -2.44788201       0.42111024       0.00000000
