10
Lattice="16.28999089631971 0.0 0.0 0.0 16.28999089631971 0.0 0.0 0.0 34.64500226677339" Properties=species:S:1:pos:R:3:initial_magmoms:R:1 pbc="T T T"
Si      -1.38311060      -1.21717251       1.44587533       0.00000000
Si      -1.41554073       1.21658607      -1.41514520       0.00000000
Si       0.96866856       1.69251471       1.36782010       0.00000000
Si       1.30005603      -1.48095648      -1.40464776       0.00000000
Si       0.30149532      -1.76702517       3.05527517       0.00000000
Si       0.98427438       0.55263825       3.47939952       0.00000000
Si      -2.58838326       2.66681961       0.06648380       0.00000000
Si      -2.63774131      -2.68876224      -0.02844356       0.00000000
Si      -0.06258618       2.57150682      -2.77839215       0.00000000
Si       2.75395482       2.60925075       0.08068826       0.00000000
