10
Lattice="16.28999089631971 0.0 0.0 0.0 16.28999089631971 0.0 0.0 0.0 34.64500226677339" Properties=species:S:1:pos:R:3:initial_magmoms:R:1 pbc="T T T"
Si      -0.30227724      -2.21925186       0.58785673       0.00000000
Si      -2.09621023       0.75619809       0.83096084       0.00000000
Si       1.99625805       0.89295264       1.22210314       0.00000000
Si      -0.39381075      -0.61509411      -2.54692876       0.00000000
Si      -1.65655942       2.83173047      -0.13120070       0.00000000
Si      -2.60487593      -2.68499925       0.27296813       0.00000000
Si       3.18441807       1.97934807      -0.62759457       0.00000000
Si       0.36162171      -2.64616389       2.77430404       0.00000000
Si       1.21393080      -2.53421901      -2.63828769       0.00000000
Si       1.22953662      -3.67409547      -0.52670826       0.00000000
