10
Lattice="16.28999089631971 0.0 0.0 0.0 16.28999089631971 0.0 0.0 0.0 34.48637585096406" Properties=species:S:1:pos:R:3:initial_magmoms:R:1 pbc="T T T"
Si       1.11558807       1.56675591      -1.35620305       0.00000000
Si       1.33271748      -1.36898621       1.42102571       0.00000000
Si      -1.40585958       1.33621983       1.40026145       0.00000000
Si      -0.77338404      -1.71641933      -1.48197493       0.00000000
Si      -0.76211136       3.42743229      -1.37827434       0.00000000
Si       2.30562144      -0.31678023      -3.00589424       0.00000000
Si       2.70568755      -2.67620984       0.01001830       0.00000000
Si       2.72173320       2.70917361      -0.03702459       0.00000000
Si       2.68328880      -0.01999109       2.78359352       0.00000000
Si       1.01191851      -3.48047972      -1.35958271       0.00000000
