10
Lattice="16.28999089631971 0.0 0.0 0.0 16.28999089631971 0.0 0.0 0.0 34.48637585096406" Properties=species:S:1:pos:R:3:initial_magmoms:R:1 pbc="T T T"
Si       1.35423657      -1.35909433       1.35803975       0.00000000
Si       1.35609363       1.35737565      -1.35876397       0.00000000
Si      -1.35847197      -1.35799799      -1.35821219       0.00000000
Si      -1.35962856       1.36025898       1.36152288       0.00000000
Si      -0.01410714      -2.68391989       2.72149387       0.00000000
Si       2.71329498       2.71416975      -0.00186227       0.00000000
Si       2.71357191      -0.00045449      -2.71618297       0.00000000
Si      -2.71644221       2.71389282      -0.00189675       0.00000000
Si      -0.00128691       2.71464216      -2.71635540       0.00000000
Si       2.71438641      -2.71661392      -0.00196572       0.00000000
