10
Lattice="16.28999089631971 0.0 0.0 0.0 16.28999089631971 0.0 0.0 0.0 34.48637585096406" Properties=species:S:1:pos:R:3:initial_magmoms:R:1 pbc="T T T"
Si      -0.91883256       1.20111057      -1.84178042       0.00000000
Si      -0.31320457       1.75558959       1.80536278       0.00000000
Si      -0.80945173      -2.23590350       1.04945549       0.00000000
Si       2.09468223      -1.28694258      -1.34828010       0.00000000
Si       0.17528040       0.21351303       3.54689125       0.00000000
Si      -1.88169767      -0.57624246      -3.08315270       0.00000000
Si       3.49050717      -1.08885618       0.79670470       0.00000000
Si       2.14659846      -1.12646979       3.00886900       0.00000000
Si       0.98318295       2.31026409      -3.05508077       0.00000000
Si       0.91826730      -3.11268457       2.46815681       0.00000000
