10
Lattice="16.28999089631971 0.0 0.0 0.0 16.28999089631971 0.0 0.0 0.0 34.48637585096406" Properties=species:S:1:pos:R:3:initial_magmoms:R:1 pbc="T T T"
Si       0.96467751      -0.37043460       2.06345897       0.00000000
Si       0.73099746       1.93795614      -1.10328875       0.00000000
Si       1.26579816      -1.35418770      -1.54740455       0.00000000
Si      -2.29475601      -0.36354393       0.79904978       0.00000000
Si      -1.70235387      -2.54285990       1.73794188       0.00000000
Si      -0.60196437       1.16569611      -3.27934580       0.00000000
Si       0.59465016      -2.62914803       2.43415323       0.00000000
Si      -0.40589793       0.92349639       3.49029908       0.00000000
Si      -0.21936114      -3.07743254      -2.26103152       0.00000000
Si       1.41724629      -0.11543094      -3.59996581       0.00000000
