10
Lattice="16.28999089631971 0.0 0.0 0.0 16.28999089631971 0.0 0.0 0.0 34.48637585096406" Properties=species:S:1:pos:R:3:initial_magmoms:R:1 pbc="T T T"
Si       2.01921066      -1.28112705      -0.32062002       0.00000000
Si      -0.51976503       0.75367314      -2.24513330       0.00000000
Si      -1.99171314      -1.43202132       0.08742301       0.00000000
Si       1.33296183       0.77226003       2.17605705       0.00000000
Si      -1.12780557       2.66655897      -0.93920248       0.00000000
Si       0.60196437      -1.16569611       3.27934580       0.00000000
Si       1.86776253      -2.51988381       1.73194125       0.00000000
Si       1.18659618       3.63675879      -0.49177599       0.00000000
Si      -1.34977311      -3.63078755      -0.39576587       0.00000000
Si       4.02465627       0.12763215      -0.11535699       0.00000000
