10
Lattice="16.28999089631971 0.0 0.0 0.0 16.28999089631971 0.0 0.0 0.0 34.48637585096406" Properties=species:S:1:pos:R:3:initial_magmoms:R:1 pbc="T T T"
Si      -1.64283021       0.05960511      -1.77880826       0.00000000
Si      -0.39561894       1.40520798       1.94310145       0.00000000
Si       0.59240214      -2.17931597       0.93889211       0.00000000
Si       2.29475601       0.36354393      -0.79904978       0.00000000
Si       3.25943352      -0.00689067       1.26440919       0.00000000
Si       1.88885808       1.28704032       2.69124930       0.00000000
Si       1.29350745      -3.50406764      -0.99865703       0.00000000
Si      -0.29892150       0.09721872      -3.99097256       0.00000000
Si       2.88940617      -2.26560410       1.63510345       0.00000000
Si      -1.70624718       0.30493251       3.65659247       0.00000000
