10
Lattice="16.28999089631971 0.0 0.0 0.0 16.28999089631971 0.0 0.0 0.0 34.48637585096406" Properties=species:S:1:pos:R:3:initial_magmoms:R:1 pbc="T T T"
Si      -0.16726572       2.24904627      -0.62913531       0.00000000
Si       0.77421483      -1.01400852      -2.02528253       0.00000000
Si       1.22398173       0.07724718       2.05976892       0.00000000
Si      -1.82724930      -1.54174261       0.26240698       0.00000000
Si      -0.24132006      -2.98277135       1.26568519       0.00000000
Si       1.02555324      -3.10794371      -0.86922959       0.00000000
Si      -1.18092726       1.99301634      -2.73104660       0.00000000
Si       2.79637398       0.18528246      -2.47046740       0.00000000
Si       3.40524531       0.83482992       1.36359206       0.00000000
Si      -0.71759079      -0.10955025      -3.76074139       0.00000000
