10
Lattice="16.28999089631971 0.0 0.0 0.0 16.28999089631971 0.0 0.0 0.0 34.48637585096406" Properties=species:S:1:pos:R:3:initial_magmoms:R:1 pbc="T T T"
Si       0.91251693       1.88214660      -1.05043214       0.00000000
Si       1.30877118      -1.32440958       1.44102437       0.00000000
Si      -1.42242651       1.36575360       1.44026911       0.00000000
Si      -0.79645068      -1.95595659      -1.34896435       0.00000000
Si       2.68739388      -2.67421527      -0.00771461       0.00000000
Si      -2.77262316      -2.62132164      -0.08239490       0.00000000
Si       2.64917754       0.02676447       2.81583485       0.00000000
Si      -0.06589305      -2.68749162       2.80848925       0.00000000
Si      -2.64477924       2.86594857       0.07408023       0.00000000
Si      -0.06543693       2.74295907       2.80862720       0.00000000
