10
Lattice="16.28999089631971 0.0 0.0 0.0 16.28999089631971 0.0 0.0 0.0 34.48637585096406" Properties=species:S:1:pos:R:3:initial_magmoms:R:1 pbc="T T T"
Si      -1.25836992       1.41395571      -1.33358890       0.00000000
Si      -1.30582269      -1.10224656       1.59872031       0.00000000
Si       1.48921551      -1.31328351      -1.30641362       0.00000000
Si       0.72948249       1.93886838       1.18188325       0.00000000
Si       2.47379940       0.58479471       1.80132788       0.00000000
Si       0.72788607      -1.93616424       2.99041878       0.00000000
Si      -2.64334572      -2.63562426       0.16525881       0.00000000
Si      -2.59330284       0.05463666      -2.69000779       0.00000000
Si       0.12479769      -2.66458788      -2.68469689       0.00000000
Si      -2.63026485       2.78342343       0.06538621       0.00000000
