10
Lattice="16.28999089631971 0.0 0.0 0.0 16.28999089631971 0.0 0.0 0.0 34.48637585096406" Properties=species:S:1:pos:R:3:initial_magmoms:R:1 pbc="T T T"
Si       0.47162808       1.24753707       1.95862032       0.00000000
Si      -0.48848497       1.54207656      -1.74152847       0.00000000
Si       1.97131806      -1.33998282      -0.53802225       0.00000000
Si      -1.90839698      -1.51412292       0.52112392       0.00000000
Si      -0.17528040      -0.21351303      -3.54689125       0.00000000
Si       0.74298690      -3.32619760      -1.07873444       0.00000000
Si      -0.98473213      -2.44941653      -2.49743576       0.00000000
Si      -1.61489612       2.29281750       2.52281775       0.00000000
Si      -2.73039038       2.43618579      -1.16695064       0.00000000
Si      -1.11683914      -3.01241685       2.17609153       0.00000000
