10
Lattice="16.28999089631971 0.0 0.0 0.0 16.28999089631971 0.0 0.0 0.0 34.48637585096406" Properties=species:S:1:pos:R:3:initial_magmoms:R:1 pbc="T T T"
Si       1.12697478       1.65675816      -1.22757772       0.00000000
Si      -1.29088476       1.11451293       1.67734929       0.00000000
Si      -1.83047472      -1.25713188      -1.09025290       0.00000000
Si       1.52927262      -2.10168693       0.02624415       0.00000000
Si       2.28964095       0.09526392      -2.50009121       0.00000000
Si      -1.65216438      -0.92090628       2.89509838       0.00000000
Si      -0.45857979      -2.62659960      -2.48922800       0.00000000
Si       2.42463618       2.80111437       0.47277399       0.00000000
Si      -0.44654148       2.83037121      -2.47839927       0.00000000
Si      -1.74311145      -3.01355226       1.52674720       0.00000000
