10
Lattice="16.28999089631971 0.0 0.0 0.0 16.28999089631971 0.0 0.0 0.0 34.48637585096406" Properties=species:S:1:pos:R:3:initial_magmoms:R:1 pbc="T T T"
Si       1.74431691      -1.35407367       0.61944463       0.00000000
Si      -0.72948249      -1.93886838      -1.18188325       0.00000000
Si       2.00645559       0.82942164      -1.08918382       0.00000000
Si      -1.52927262       2.10168693      -0.02624415       0.00000000
Si      -1.98785241      -0.52491267      -2.51547215       0.00000000
Si       0.76036833       2.19695085      -2.52633536       0.00000000
Si       0.75618180       1.27788534       3.26931026       0.00000000
Si      -3.35974734       0.84455505      -1.11649704       0.00000000
Si      -2.03530518      -3.04111494       0.41683706       0.00000000
Si      -3.27238407      -0.91186533       1.50050305       0.00000000
