10
Lattice="16.28999089631971 0.0 0.0 0.0 16.28999089631971 0.0 0.0 0.0 34.48637585096406" Properties=species:S:1:pos:R:3:initial_magmoms:R:1 pbc="T T T"
Si       1.47343050      -0.20010636      -1.77225585       0.00000000
Si       1.11516453       0.39232836       2.04176702       0.00000000
Si      -2.41741971      -0.03661992      -0.09625153       0.00000000
Si      -1.28405925       2.02054644      -0.35189918       0.00000000
Si      -0.14074560      -2.81694825       0.34079456       0.00000000
Si       2.07787095      -2.26901781      -0.72831818       0.00000000
Si      -1.01230947       1.00486494       2.94496571       0.00000000
Si      -2.44336968      -0.67570920       2.15429613       0.00000000
Si       2.96341164       1.55067768       1.14381027       0.00000000
Si       3.29641182       1.22183145      -1.18391794       0.00000000
