10
Lattice="16.28999089631971 0.0 0.0 0.0 16.28999089631971 0.0 0.0 0.0 34.48637585096406" Properties=species:S:1:pos:R:3:initial_magmoms:R:1 pbc="T T T"
Si      -0.33319566       0.95379579       2.09232408       0.00000000
Si      -1.13336046      -2.05716636       0.25564765       0.00000000
Si      -0.96423768       1.41861465      -1.63641394       0.00000000
Si       1.28405925      -2.02054644       0.35189918       0.00000000
Si       0.27174978      -1.01568150       3.29686489       0.00000000
Si       1.23818661       2.91172347       1.72025036       0.00000000
Si      -3.25842354       1.20668175      -1.22016315       0.00000000
Si       2.39922378      -1.62821808       2.39366620       0.00000000
Si       2.75748975      -2.22065280      -1.42035667       0.00000000
Si       1.71843210       3.37108518      -0.58968287       0.00000000
