10
Lattice="16.28999089631971 0.0 0.0 0.0 16.28999089631971 0.0 0.0 0.0 34.48637585096406" Properties=species:S:1:pos:R:3:initial_magmoms:R:1 pbc="T T T"
Si      -0.82945422      -1.85821659      -1.16408344       0.00000000
Si       1.22157081      -1.48338369       1.40802778       0.00000000
Si      -1.51941717       1.21370274       1.38015933       0.00000000
Si       0.89441874       1.82135232      -1.37915374       0.00000000
Si       2.58818778       2.62562220      -0.00955273       0.00000000
Si      -0.14994945       2.57088780       2.76116012       0.00000000
Si       2.56753206      -0.15289794       2.76536746       0.00000000
Si      -0.57332655      -1.49454234      -3.43830191       0.00000000
Si      -2.85358446       2.54909178      -0.23357635       0.00000000
Si      -2.72793969      -2.73882141       0.02519921       0.00000000
