10
Lattice="16.28999089631971 0.0 0.0 0.0 16.28999089631971 0.0 0.0 0.0 34.48637585096406" Properties=species:S:1:pos:R:3:initial_magmoms:R:1 pbc="T T T"
Si       1.25574723      -1.08986616      -1.96693155       0.00000000
Si      -1.29994200      -2.00640672       1.00055378       0.00000000
Si       2.26242036      -0.07755669       1.33952056       0.00000000
Si      -1.16076024       1.61850924      -1.82222663       0.00000000
Si      -0.54731142       2.22097860       1.49729582       0.00000000
Si      -2.27968776       2.83331970       0.08321567       0.00000000
Si       2.86347249      -2.21620563      -0.74783748       0.00000000
Si       2.35022346      -2.45114001       1.54167981       0.00000000
Si       0.35598537      -3.72539268       0.90709565       0.00000000
Si       4.04720163      -0.13486491      -0.28316779       0.00000000
