10
Lattice="16.28999089631971 0.0 0.0 0.0 16.28999089631971 0.0 0.0 0.0 34.48637585096406" Properties=species:S:1:pos:R:3:initial_magmoms:R:1 pbc="T T T"
Si       2.29700403      -0.08628813       0.69621134       0.00000000
Si      -1.47815460      -1.35285192       1.33693408       0.00000000
Si      -0.59240214       2.17931597      -0.93889211       0.00000000
Si       0.70110531      -1.32475167      -1.93754914       0.00000000
Si       2.77558794      -1.78041555      -0.88347247       0.00000000
Si       2.66703138       2.17242530       0.32551708       0.00000000
Si       1.70235387       2.54285990      -1.73794188       0.00000000
Si      -2.51072883      -2.41222320      -0.51636479       0.00000000
Si      -1.22727231      -2.53469142      -2.51850695       0.00000000
Si      -0.98802108       3.58452395       1.00420934       0.00000000
