10
Lattice="16.28999089631971 0.0 0.0 0.0 16.28999089631971 0.0 0.0 0.0 34.48637585096406" Properties=species:S:1:pos:R:3:initial_magmoms:R:1 pbc="T T T"
Si       1.60953345       1.14510213       1.34114142       0.00000000
Si      -1.31476590      -1.45220546       1.41963246       0.00000000
Si       1.24559856      -1.43917346      -1.52781628       0.00000000
Si      -1.45956771       1.26657992      -1.50070997       0.00000000
Si      -2.61242730      -2.59656167      -0.28071926       0.00000000
Si       2.59393815       2.71476743      -0.07255938       0.00000000
Si       2.49914664      -2.87020109      -0.17884645       0.00000000
Si       2.61319293      -0.09656473      -2.89540876       0.00000000
Si      -0.10158444       2.62124654      -2.89468455       0.00000000
Si      -2.87813349       2.64149501       0.04783263       0.00000000
