10
Lattice="16.28999089631971 0.0 0.0 0.0 16.28999089631971 0.0 0.0 0.0 34.48637585096406" Properties=species:S:1:pos:R:3:initial_magmoms:R:1 pbc="T T T"
Si       0.66062466       0.73254990      -2.21133663       0.00000000
Si       1.60137216      -0.86224599       1.64917390       0.00000000
Si      -0.06304230      -2.65154189      -0.31627473       0.00000000
Si      -1.19003337       1.88353614       1.64969120       0.00000000
Si      -1.23779565       2.15139261      -2.43173918       0.00000000
Si      -3.30667452      -0.91010796      -0.88992143       0.00000000
Si      -1.79501139      -2.55218918      -1.98945116       0.00000000
Si      -3.07900548      -1.39963910       1.52391931       0.00000000
Si      -1.29370293      -3.16369949       1.64631153       0.00000000
Si      -2.30562144       0.31678023       3.00589424       0.00000000
