10
Lattice="16.28999089631971 0.0 0.0 0.0 16.28999089631971 0.0 0.0 0.0 34.48637585096406" Properties=species:S:1:pos:R:3:initial_magmoms:R:1 pbc="T T T"
Si      -1.35607734      -1.35811359      -1.35724657       0.00000000
Si       1.35698958      -1.35725022       1.35731554       0.00000000
Si      -1.35786924       1.35729909       1.35741900       0.00000000
Si       1.35827649       1.35891180      -1.35628095       0.00000000
Si      -0.00144981       2.71340901      -2.71280330       0.00000000
Si       2.71366965      -2.71529213       0.00086216       0.00000000
Si      -0.00096111       2.71388142       2.71514837       0.00000000
Si       2.71440270       2.71471221       0.00003449       0.00000000
Si       2.71282257       0.00141723      -2.71652783       0.00000000
Si      -2.71555929      -0.00045612       2.71435519       0.00000000
