10
Lattice="16.28999089631971 0.0 0.0 0.0 16.28999089631971 0.0 0.0 0.0 34.48637585096406" Properties=species:S:1:pos:R:3:initial_magmoms:R:1 pbc="T T T"
Si      -1.34042265      -1.35532800      -1.37069626       0.00000000
Si       1.35509994      -1.26180711       1.45142891       0.00000000
Si       1.37507148       1.35558864      -1.36969616       0.00000000
Si      -1.35648459       1.32638067       1.52809217       0.00000000
Si       2.01057696       0.57137175       2.94937997       0.00000000
Si       0.28755108       2.40916068       2.85061093       0.00000000
Si      -2.68923465       2.70625770       0.00879403       0.00000000
Si      -2.69840592      -2.70999463       0.02327832       0.00000000
Si      -2.69737965      -0.00143352      -2.73090866       0.00000000
Si       0.01721853       2.71290402      -2.73011547       0.00000000
