10
Lattice="16.28999089631971 0.0 0.0 0.0 16.28999089631971 0.0 0.0 0.0 34.48637585096406" Properties=species:S:1:pos:R:3:initial_magmoms:R:1 pbc="T T T"
Si      -0.73844199       1.98982350       0.97999989       0.00000000
Si      -0.73099746      -1.93795614       1.10328875       0.00000000
Si      -1.33296183      -0.77226003      -2.17605705       0.00000000
Si       2.63446767       0.61248771      -0.03176197       0.00000000
Si       0.68624883      -2.05338708      -2.49667706       0.00000000
Si       0.53480070      -3.29214384      -0.44411580       0.00000000
Si       2.43515952       0.69864552       2.41604787       0.00000000
Si       2.69169444      -0.64462788      -2.29141404       0.00000000
Si       0.60126390       2.15449911       2.89120142       0.00000000
Si      -0.14636565       2.86449876      -2.66783304       0.00000000
