10
Lattice="16.28999089631971 0.0 0.0 0.0 16.28999089631971 0.0 0.0 0.0 34.48637585096406" Properties=species:S:1:pos:R:3:initial_magmoms:R:1 pbc="T T T"
Si      -0.02428839       2.36915244      -0.33748386       0.00000000
Si      -0.19930815       0.08615781       2.44780984       0.00000000
Si       0.05722677      -1.25711559      -2.25965207       0.00000000
Si       2.54415591      -0.63736254       0.01807087       0.00000000
Si      -2.63446767      -0.61248771       0.03176197       0.00000000
Si       2.27729313      -2.02618278      -1.87019721       0.00000000
Si      -3.37290966       1.37733579       1.01176186       0.00000000
Si      -2.03320377       1.54201140       2.92296339       0.00000000
Si       0.58593501       3.66875235       1.51474593       0.00000000
Si      -0.26871984      -2.06516475       3.45208815       0.00000000
