10
Lattice="16.28999089631971 0.0 0.0 0.0 16.28999089631971 0.0 0.0 0.0 34.48637585096406" Properties=species:S:1:pos:R:3:initial_magmoms:R:1 pbc="T T T"
Si      -0.72187506      -1.04054004       1.95789611       0.00000000
Si      -1.33970589      -0.16467561      -1.91120153       0.00000000
Si       0.69579477       2.28130047      -0.04969490       0.00000000
Si       1.83389562      -1.45585359      -0.47515355       0.00000000
Si      -1.01349864       2.14475769      -2.58047900       0.00000000
Si      -0.60126390      -2.15449911      -2.89120142       0.00000000
Si       2.61913878       2.12674095      -1.40821746       0.00000000
Si       1.23230592      -1.13479398       3.27469014       0.00000000
Si       3.70620306      -0.58399650       0.66693240       0.00000000
Si      -2.52794736       0.06252102       2.88585603       0.00000000
