10
Lattice="16.28999089631971 0.0 0.0 0.0 16.28999089631971 0.0 0.0 0.0 34.48637585096406" Properties=species:S:1:pos:R:3:initial_magmoms:R:1 pbc="T T T"
Si      -0.97065594       1.96354773       0.84771008       0.00000000
Si      -1.88762004      -1.19677743      -1.01445180       0.00000000
Si       0.70371171      -1.22797278       2.09008246       0.00000000
Si       1.15608501       1.30038183      -2.06252783       0.00000000
Si       2.26479870      -2.33948835       0.73007698       0.00000000
Si      -0.82388304       0.98947089      -3.38870216       0.00000000
Si       1.31973435       3.04899930       1.49984781       0.00000000
Si       1.70129502       3.30869448      -0.86895370       0.00000000
Si      -3.04249959       0.44154045      -2.31958942       0.00000000
Si       1.45310058      -3.44468340      -1.43101297       0.00000000
