10
Lattice="16.28999089631971 0.0 0.0 0.0 16.28999089631971 0.0 0.0 0.0 34.48637585096406" Properties=species:S:1:pos:R:3:initial_magmoms:R:1 pbc="T T T"
Si       1.34291502       1.33729497       1.38298376       0.00000000
Si      -1.37310365      -1.37689596       1.37653481       0.00000000
Si      -1.36701445       1.41301089      -1.39410218       0.00000000
Si       1.35099486      -1.31116581      -1.51445280       0.00000000
Si      -0.66401298      -2.27713023      -2.68302285       0.00000000
Si      -2.37182726      -0.31987044      -2.68569634       0.00000000
Si       2.70119151       2.67590943       0.00821121       0.00000000
Si       2.68341912      -2.73701322      -0.00248647       0.00000000
Si      -0.01141929       2.69505018       2.73947163       0.00000000
Si      -2.74745511       2.68959303       0.01789499       0.00000000
