10
Lattice="16.28999089631971 0.0 0.0 0.0 16.28999089631971 0.0 0.0 0.0 34.48637585096406" Properties=species:S:1:pos:R:3:initial_magmoms:R:1 pbc="T T T"
Si      -0.48433428      -2.06545797       0.94234075       0.00000000
Si       1.53420849      -0.34717248      -1.72249198       0.00000000
Si       0.56915631       1.34172585       1.86302404       0.00000000
Si      -1.75756068       0.25578558      -1.65400200       0.00000000
Si       0.60893649      -2.25539937      -2.79053563       0.00000000
Si      -1.09455768      -3.36505788      -0.90988905       0.00000000
Si      -1.84536378       2.62936890      -1.85616124       0.00000000
Si       0.78956001       3.50425593       1.04321345       0.00000000
Si       1.42723206      -2.87673255       2.00490107       0.00000000
Si      -1.28106189       1.33419987       3.35997499       0.00000000
