10
Lattice="16.28999089631971 0.0 0.0 0.0 16.28999089631971 0.0 0.0 0.0 34.48637585096406" Properties=species:S:1:pos:R:3:initial_magmoms:R:1 pbc="T T T"
Si       1.85432328      -0.91816956       0.99627747       0.00000000
Si      -0.49526487      -1.16833509      -1.93372115       0.00000000
Si       0.63135153       2.07676323      -0.87460947       0.00000000
Si      -2.12749029       0.22175577       1.00079519       0.00000000
Si      -1.58975739       2.46464442      -1.56582028       0.00000000
Si      -2.13306147       0.36948978      -2.74715175       0.00000000
Si      -1.43940069      -0.20228922       3.20971777       0.00000000
Si      -2.63932209       2.51913447       0.59026914       0.00000000
Si       1.42807914      -1.32289461      -3.29224371       0.00000000
Si       1.60231698       3.38335155       0.81781037       0.00000000
