10
Lattice="16.28999089631971 0.0 0.0 0.0 16.28999089631971 0.0 0.0 0.0 34.48637585096406" Properties=species:S:1:pos:R:3:initial_magmoms:R:1 pbc="T T T"
Si       1.60772526      -1.12633947       1.21909407       0.00000000
Si      -1.30541544      -1.36500426      -1.39100875       0.00000000
Si       1.39740507       1.29037977      -1.45377399       0.00000000
Si      -1.25574723       1.08986616       1.96693155       0.00000000
Si       2.79145440       0.95500125       1.68376376       0.00000000
Si       1.00667313       1.01230947       3.30645211       0.00000000
Si      -2.41650747       2.70837540       0.14470491       0.00000000
Si       2.82346425       2.54044179      -0.09887249       0.00000000
Si      -2.55150270       0.00252495      -2.82816029       0.00000000
Si      -1.56755412      -3.54849957       0.31761970       0.00000000
