10
Lattice="16.28999089631971 0.0 0.0 0.0 16.28999089631971 0.0 0.0 0.0 34.48637585096406" Properties=species:S:1:pos:R:3:initial_magmoms:R:1 pbc="T T T"
Si       0.06841800      -2.30896089       0.36641795       0.00000000
Si       1.26024327       0.28326681      -1.97300115       0.00000000
Si       1.04044230       1.00917269       1.93385909       0.00000000
Si      -2.38130478       0.24508305       0.37248755       0.00000000
Si      -0.29960568      -0.28486323       3.40063445       0.00000000
Si      -1.06987833      -2.32283997       2.37573327       0.00000000
Si       3.37365900       0.53628309      -0.96675711       0.00000000
Si      -2.45798181       2.25241897       1.62613699       0.00000000
Si       2.29961043      -2.99325492       0.51850295       0.00000000
Si       0.53913384       2.23086893      -3.04370026       0.00000000
