10
Lattice="16.28999089631971 0.0 0.0 0.0 16.28999089631971 0.0 0.0 0.0 34.48637585096406" Properties=species:S:1:pos:R:3:initial_magmoms:R:1 pbc="T T T"
Si       1.35553977       1.35683157      -1.38873265       0.00000000
Si      -1.36159965      -1.35996972      -1.38528401       0.00000000
Si       1.34579835      -1.48915265       1.36710968       0.00000000
Si      -1.38085443       1.45136244       1.43756538       0.00000000
Si      -2.36525913      -0.11830287       2.85126618       0.00000000
Si       2.69234604       2.69572296      -0.01496710       0.00000000
Si      -2.72919402      -2.70257846      -0.01769152       0.00000000
Si      -2.73595437       2.71316955      -0.01386353       0.00000000
Si      -0.00289962       2.70955317      -2.74384106       0.00000000
Si       2.70961344      -0.00264875      -2.74425489       0.00000000
