10
Lattice="16.28999089631971 0.0 0.0 0.0 16.28999089631971 0.0 0.0 0.0 34.48637585096406" Properties=species:S:1:pos:R:3:initial_magmoms:R:1 pbc="T T T"
Si      -1.27008243       1.42667820      -1.41142469       0.00000000
Si       1.42719948      -1.31905017      -1.41366631       0.00000000
Si       1.84104693       0.77872716       1.34379687       0.00000000
Si      -1.99052397      -0.73023183       1.53681723       0.00000000
Si      -2.64600099      -2.56341069       0.03886617       0.00000000
Si      -2.65118121       2.73383667       0.07145581       0.00000000
Si       2.75934681       2.63339253      -0.02914100       0.00000000
Si       2.60221347      -2.80419318       0.03983179       0.00000000
Si      -2.62602945       0.05398506      -2.78225890       0.00000000
Si       0.09039321      -2.65794156      -2.78743186       0.00000000
