10
Lattice="16.28999089631971 0.0 0.0 0.0 16.28999089631971 0.0 0.0 0.0 34.48637585096406" Properties=species:S:1:pos:R:3:initial_magmoms:R:1 pbc="T T T"
Si      -1.35343836       1.35814617       1.35966061       0.00000000
Si       1.36425492      -1.35840681       1.35948818       0.00000000
Si      -1.32836805      -1.39248549      -1.36226779       0.00000000
Si       1.37481084       1.36744776      -1.38400801       0.00000000
Si      -2.59895547       0.07374483      -2.62304556       0.00000000
Si      -2.71044423       2.70733284       0.00296583       0.00000000
Si      -2.71044423      -0.00118917       2.71756242       0.00000000
Si      -2.71195920      -2.71777473       0.00455220       0.00000000
Si       0.00441459       2.71313208       2.71770037       0.00000000
Si       0.00389331      -2.71647153       2.71738999       0.00000000
