10
Lattice="16.28999089631971 0.0 0.0 0.0 16.28999089631971 0.0 0.0 0.0 34.48637585096406" Properties=species:S:1:pos:R:3:initial_magmoms:R:1 pbc="T T T"
Si       1.35046122       1.36210464       1.35376344       0.00000000
Si       1.35380556      -1.35904212      -1.35966061       0.00000000
Si      -1.36223496       1.35746199      -1.35828116       0.00000000
Si      -1.36708938      -1.38235311       1.36045380       0.00000000
Si      -0.04774599       2.55679695       2.81008942       0.00000000
Si       2.70935999      -2.71161711      -0.00334518       0.00000000
Si       2.71036997       2.71249677       0.00168983       0.00000000
Si       2.67239798       0.01716966       2.75204882       0.00000000
Si       2.71115189       0.00057015      -2.71621745       0.00000000
Si      -2.71551042       2.71450044      -0.00027589       0.00000000
