10
Lattice="16.28999089631971 0.0 0.0 0.0 16.28999089631971 0.0 0.0 0.0 34.48637585096406" Properties=species:S:1:pos:R:3:initial_magmoms:R:1 pbc="T T T"
Si       1.40481702      -1.22881986      -1.40728633       0.00000000
Si       1.83410739       0.80295039       1.23913066       0.00000000
Si      -1.32551730      -1.28330991       1.55975068       0.00000000
Si      -1.30284162       1.50319233      -1.39287101       0.00000000
Si       0.61884081       1.30906440       3.24637680       0.00000000
Si      -2.56634289       0.39423429       2.62172473       0.00000000
Si      -2.68705179      -2.59682148       0.08773339       0.00000000
Si       0.05543487      -2.56029930      -2.77215439       0.00000000
Si       2.72347623      -2.69726562      -0.01286343       0.00000000
Si      -2.65994523       0.15319116      -2.76763667       0.00000000
