10
Lattice="16.28999089631971 0.0 0.0 0.0 16.28999089631971 0.0 0.0 0.0 34.48637585096406" Properties=species:S:1:pos:R:3:initial_magmoms:R:1 pbc="T T T"
Si       1.78026894       1.52236566      -0.10180384       0.00000000
Si       0.76696578      -1.94839803       1.10177135       0.00000000
Si      -0.49063851      -0.93488310      -2.12098227       0.00000000
Si      -1.96138116       1.20293505       0.68079593       0.00000000
Si      -1.19995398      -1.97700327       2.46257002       0.00000000
Si       1.56768444      -3.02301675      -0.86526365       0.00000000
Si      -0.65474397       0.03130938       3.65614415       0.00000000
Si       1.48854762       2.68234398      -2.14736437       0.00000000
Si       1.60156764       2.73859335       2.00128000       0.00000000
Si      -3.78436248      -0.21900276       0.09245803       0.00000000
