10
Lattice="16.28999089631971 0.0 0.0 0.0 16.28999089631971 0.0 0.0 0.0 34.48637585096406" Properties=species:S:1:pos:R:3:initial_magmoms:R:1 pbc="T T T"
Si       1.96165809      -1.26954486       0.52546920       0.00000000
Si       0.29144439       1.18400607      -2.10218719       0.00000000
Si      -1.55349585       0.56294982       1.85326439       0.00000000
Si      -1.96486722      -1.52327790      -0.44732303       0.00000000
Si      -2.34642789      -1.78297308       1.92147848       0.00000000
Si      -2.93298192       1.98368217       0.12480626       0.00000000
Si      -1.29463146       2.91737610      -1.54036932       0.00000000
Si      -3.60450459      -0.02280600      -1.09494305       0.00000000
Si       2.33657244       2.30816268      -2.03048997       0.00000000
Si       1.41455844      -3.36077361      -1.70976650       0.00000000
