10
Lattice="16.28999089631971 0.0 0.0 0.0 16.28999089631971 0.0 0.0 0.0 34.48637585096406" Properties=species:S:1:pos:R:3:initial_magmoms:R:1 pbc="T T T"
Si      -1.05554313       1.64683998       1.27789682       0.00000000
Si       1.67524976      -1.07160507       1.25031115       0.00000000
Si      -1.79854632      -1.87048296      -0.12647885       0.00000000
Si       1.37829690       1.82049939      -1.27506066       0.00000000
Si      -2.42220897       0.30838599       2.63201547       0.00000000
Si       0.31219785      -2.42478279       2.63049807       0.00000000
Si      -2.33872272       3.06883467      -0.08566421       0.00000000
Si       3.15507231      -2.36025810      -0.33941165       0.00000000
Si       2.81229813       0.69874326      -2.73687622       0.00000000
Si       3.01676532       0.29957310       2.62439398       0.00000000
