10
Lattice="16.28999089631971 0.0 0.0 0.0 16.28999089631971 0.0 0.0 0.0 34.48637585096406" Properties=species:S:1:pos:R:3:initial_magmoms:R:1 pbc="T T T"
Si       0.79176079       1.37293749       1.76356527       0.00000000
Si      -1.93556544      -1.31489622       0.51577853       0.00000000
Si       2.08652420      -1.04528043      -0.56419742       0.00000000
Si      -0.89680101       1.47082410      -1.67776312       0.00000000
Si       3.20853053       1.00796004      -1.11177241       0.00000000
Si      -2.90322402       2.07906012      -0.63882598       0.00000000
Si       3.06376130       1.75067001       1.14863836       0.00000000
Si      -3.72772608       0.17959725       0.37376355       0.00000000
Si       1.61489612      -2.29281750      -2.52281775       0.00000000
Si      -2.28845571      -2.72774421      -1.33172663       0.00000000
