10
Lattice="16.28999089631971 0.0 0.0 0.0 16.28999089631971 0.0 0.0 0.0 34.48637585096406" Properties=species:S:1:pos:R:3:initial_magmoms:R:1 pbc="T T T"
Si       1.38026799      -1.24983396      -1.38804292       0.00000000
Si       1.23409782       1.19063514       1.61658426       0.00000000
Si      -1.39538511      -1.39439142       1.31907013       0.00000000
Si      -1.34579835       1.48915265      -1.36710968       0.00000000
Si      -1.51655013       0.53647272       2.61044768       0.00000000
Si       2.52156168       2.69973260       0.07142132       0.00000000
Si       0.01161477      -2.58737328      -2.75270406       0.00000000
Si       2.67937920      -2.74507677       0.05766125       0.00000000
Si      -2.70739800       0.12918293      -2.75239368       0.00000000
Si      -2.82144429      -2.64445344      -0.03583136       0.00000000
