10
Lattice="16.28999089631971 0.0 0.0 0.0 16.28999089631971 0.0 0.0 0.0 34.48637585096406" Properties=species:S:1:pos:R:3:initial_magmoms:R:1 pbc="T T T"
Si       1.39820721      -1.19469231      -1.45632598       0.00000000
Si       1.62481414       1.15807239       1.32431206       0.00000000
Si      -0.89005302      -1.90737981       1.19678137       0.00000000
Si      -1.29911121       1.49524281      -1.44570417       0.00000000
Si       0.01611081       2.20525875       2.67659258       0.00000000
Si       2.72014397      -2.53962729      -0.05804060       0.00000000
Si       0.04774599      -2.55679695      -2.81008942       0.00000000
Si      -2.67937920       2.74507677      -0.05766125       0.00000000
Si      -2.72416041      -2.71033020      -0.04234929       0.00000000
Si      -2.66776443       0.15770349      -2.81036531       0.00000000
