10
Lattice="16.28999089631971 0.0 0.0 0.0 16.28999089631971 0.0 0.0 0.0 34.48637585096406" Properties=species:S:1:pos:R:3:initial_magmoms:R:1 pbc="T T T"
Si       1.27416375      -0.05061303       1.93082429       0.00000000
Si       0.10961541      -1.63564632      -1.64389748       0.00000000
Si      -2.31000345       0.44621568       0.26202763       0.00000000
Si       0.87874191       2.14580907      -0.66589780       0.00000000
Si      -0.92427831       2.74135355       1.76097879       0.00000000
Si      -0.15983748       1.07114310       3.39263985       0.00000000
Si      -0.93592566       3.02900237      -1.92275447       0.00000000
Si       0.17510823      -0.44033499      -3.68256073       0.00000000
Si      -2.52504774       2.72538935      -0.24326703       0.00000000
Si       2.13295463      -2.82507696      -1.30210282       0.00000000
