10
Lattice="16.28999089631971 0.0 0.0 0.0 16.28999089631971 0.0 0.0 0.0 34.48637585096406" Properties=species:S:1:pos:R:3:initial_magmoms:R:1 pbc="T T T"
Si      -2.16215771      -0.76115025       0.42369985       0.00000000
Si       1.84261566      -1.40058162      -0.28920291       0.00000000
Si      -0.42508429       1.25726220      -1.92989316       0.00000000
Si       0.92838828       1.52054118       1.60296213       0.00000000
Si      -2.08292315       2.68649793      -0.98217253       0.00000000
Si       1.84691622       1.63499472      -2.54482007       0.00000000
Si       2.85627720      -1.14455169       1.81270839       0.00000000
Si       3.12271644      -0.28383696      -1.94137713       0.00000000
Si      -3.54706835       1.09125081       0.14939506       0.00000000
Si       1.73777322       0.23508099       3.38280498       0.00000000
