10
Lattice="16.28999089631971 0.0 0.0 0.0 16.28999089631971 0.0 0.0 0.0 34.48637585096406" Properties=species:S:1:pos:R:3:initial_magmoms:R:1 pbc="T T T"
Si       1.33493292       1.35931905       1.35641889       0.00000000
Si      -1.35555443       1.35257499      -1.35631543       0.00000000
Si      -1.34093253      -1.36238157       1.36655789       0.00000000
Si       1.35878148      -1.35944937      -1.35610852       0.00000000
Si       2.59330284      -0.05463666       2.69000779       0.00000000
Si      -2.70935999       2.71161711       0.00334518       0.00000000
Si       0.00179190       2.71218726      -2.71287227       0.00000000
Si      -2.71277485      -0.00291591      -2.71301022       0.00000000
Si       2.71422351       2.71397916       0.00451772       0.00000000
Si      -2.71131479      -2.71740006       0.00689728       0.00000000
