10
Lattice="16.28999089631971 0.0 0.0 0.0 16.28999089631971 0.0 0.0 0.0 34.48637585096406" Properties=species:S:1:pos:R:3:initial_magmoms:R:1 pbc="T T T"
Si       0.78206661      -2.14917228       0.51629582       0.00000000
Si      -1.85233590       0.70291350       1.27741056       0.00000000
Si      -0.79180803       0.28613385      -2.22302752       0.00000000
Si       1.69492563       1.68622677       0.30061791       0.00000000
Si      -2.42466061       2.22625656      -0.44590909       0.00000000
Si      -0.81511902       1.93052790       3.02049092       0.00000000
Si       1.47906684       2.14246080       2.60424013       0.00000000
Si      -0.09620874       2.49829956      -2.83978221       0.00000000
Si       0.93636549       3.55767084      -0.98648333       0.00000000
Si       2.87000478      -2.51294427      -0.40859481       0.00000000
