10
Lattice="16.28999089631971 0.0 0.0 0.0 16.28999089631971 0.0 0.0 0.0 34.48637585096406" Properties=species:S:1:pos:R:3:initial_magmoms:R:1 pbc="T T T"
Si      -1.46487825       1.48880779       1.15622537       0.00000000
Si       1.74930165       1.31386995      -0.99841563       0.00000000
Si       0.77141295      -1.29858993       1.89613098       0.00000000
Si      -0.84729177      -1.58754195      -1.69928263       0.00000000
Si       3.48167799       0.70152885       0.41566452       0.00000000
Si       2.69979057      -0.08865018       2.47708879       0.00000000
Si       0.56654991      -3.47539005       1.04614480       0.00000000
Si       1.10736162       3.51263618      -0.51522674       0.00000000
Si      -2.24440362       0.17572023       3.05608088       0.00000000
Si      -1.20857139      -3.62296116      -0.48153354       0.00000000
