10
Lattice="16.28999089631971 0.0 0.0 0.0 16.28999089631971 0.0 0.0 0.0 34.48637585096406" Properties=species:S:1:pos:R:3:initial_magmoms:R:1 pbc="T T T"
Si       1.73236005      -1.35184194       0.84219226       0.00000000
Si      -1.08030067       1.62686831       1.35497046       0.00000000
Si      -1.31334541      -1.93305285      -0.50850190       0.00000000
Si       0.77952537       1.31308756      -1.89985551       0.00000000
Si      -3.19626809      -0.76439196      -1.33807213       0.00000000
Si       3.01581657      -1.47431016      -1.15994990       0.00000000
Si      -1.87185851       3.12516224      -0.29999715       0.00000000
Si      -0.59609183      -1.62388494       3.23606537       0.00000000
Si      -2.79994868       1.53526149      -1.85685097       0.00000000
Si       2.24440362      -0.17572023      -3.05608088       0.00000000
