10
Lattice="16.28999089631971 0.0 0.0 0.0 16.28999089631971 0.0 0.0 0.0 34.48637585096406" Properties=species:S:1:pos:R:3:initial_magmoms:R:1 pbc="T T T"
Si      -1.51824266       1.64620224      -0.70097047       0.00000000
Si      -1.17546848      -1.41279912       1.69649410       0.00000000
Si       1.41014385       1.22802165       1.66573569       0.00000000
Si       0.84937689      -0.08298126      -2.46319077       0.00000000
Si       3.37284450       2.26434258       0.39776608       0.00000000
Si      -2.95224389       2.76795837       0.76084510       0.00000000
Si      -2.31055731      -3.35284038       0.63512529       0.00000000
Si      -0.65945178      -1.12826169      -3.93389758       0.00000000
Si       0.06691932       2.59302736       3.28627553       0.00000000
Si      -2.79240641       1.69681527      -2.63179476       0.00000000
