10
Lattice="16.28999089631971 0.0 0.0 0.0 16.28999089631971 0.0 0.0 0.0 34.40246978574605" Properties=species:S:1:pos:R:3:initial_magmoms:R:1 pbc="T T T"
Si       0.63956169      -1.61371998      -1.60508253       0.00000000
Si      -1.64171109       0.76082445      -1.52901862       0.00000000
Si       1.79079228       1.55791044      -0.14500649       0.00000000
Si      -0.61686972      -0.81533079       2.19078490       0.00000000
Si       1.49105628      -0.23361489      -3.29396952       0.00000000
Si      -1.43972160      -2.80442124      -1.94212371       0.00000000
Si      -0.47917035      -3.23319033       1.83981071       0.00000000
Si       3.36298905       0.92253528       1.47961665       0.00000000
Si      -3.04045424      -1.06605018      -1.99740851       0.00000000
Si      -3.17380418       2.09065860      -0.36666173       0.00000000
