10
Lattice="16.28999089631971 0.0 0.0 0.0 16.28999089631971 0.0 0.0 0.0 34.40246978574605" Properties=species:S:1:pos:R:3:initial_magmoms:R:1 pbc="T T T"
Si      -1.53209309       1.32983415       1.16235690       0.00000000
Si      -1.39874315      -1.82687463      -0.46838989       0.00000000
Si       1.64171109      -0.76082445       1.52901862       0.00000000
Si       1.19999145       0.44110062      -2.07195871       0.00000000
Si       2.28127278      -2.37454443      -0.07606390       0.00000000
Si       0.20198948      -3.56524569      -0.41310509       0.00000000
Si      -2.78490812      -0.27367200       2.45269105       0.00000000
Si       3.13276737      -0.99443934      -1.76495089       0.00000000
Si       3.43250337       0.79708599       1.38401213       0.00000000
Si       1.37378946       2.83506273      -2.23420084       0.00000000
