10
Lattice="16.28999089631971 0.0 0.0 0.0 16.28999089631971 0.0 0.0 0.0 34.40246978574605" Properties=species:S:1:pos:R:3:initial_magmoms:R:1 pbc="T T T"
Si      -1.29551112       1.35690813       1.39567458       0.00000000
Si       1.61028279      -1.35462753       1.13693346       0.00000000
Si      -1.68691095      -0.76937670      -1.62734094       0.00000000
Si       2.22234696      -1.40108661      -1.54752716       0.00000000
Si       2.29294782       0.96848937      -2.33850919       0.00000000
Si      -2.21262835      -0.36163800       2.73620338       0.00000000
Si       0.44927820       2.41398252       2.76810481       0.00000000
Si      -1.07004123       0.04595409      -3.81812584       0.00000000
Si       0.53735823      -2.92770396       2.73130790       0.00000000
Si      -1.54921158      -3.18723624      -1.97831513       0.00000000
