10
Lattice="16.28999089631971 0.0 0.0 0.0 16.28999089631971 0.0 0.0 0.0 34.40246978574605" Properties=species:S:1:pos:R:3:initial_magmoms:R:1 pbc="T T T"
Si      -1.96559768       0.55708772       1.09823066       0.00000000
Si      -0.81847217      -1.43356887      -1.68905900       0.00000000
Si       0.39383030       1.76327914      -1.54838723       0.00000000
Si       0.28756085      -0.98077203       2.33709869       0.00000000
Si      -0.51277403      -3.24465849       1.39543376       0.00000000
Si      -2.07128720      -3.03707502      -0.39872485       0.00000000
Si      -1.95942377       0.00078192      -3.21990096       0.00000000
Si       1.42942632       3.52522835      -0.46195662       0.00000000
Si       2.15446001       1.16118445      -3.02091696       0.00000000
Si      -0.55418321       0.55299078       3.95511655       0.00000000
