10
Lattice="16.28999089631971 0.0 0.0 0.0 16.28999089631971 0.0 0.0 0.0 34.40246978574605" Properties=species:S:1:pos:R:3:initial_magmoms:R:1 pbc="T T T"
Si       1.35360126       1.36966320      -1.33557343       0.00000000
Si       1.35659862      -1.35544203       1.36075605       0.00000000
Si      -1.35668007       1.36057338       1.36037762       0.00000000
Si      -1.33907058      -1.38826638      -1.35162219       0.00000000
Si      -2.63554281      -0.04057839      -2.70412164       0.00000000
Si      -2.71502172       2.71135647       0.00220176       0.00000000
Si       2.71187775      -2.71737725       0.00261459       0.00000000
Si       2.71191033       2.71766070       0.00330264       0.00000000
Si      -2.71595025      -2.71456886       0.00340585       0.00000000
Si       2.71344159       0.00172674       2.71783103       0.00000000
