10
Lattice="16.28999089631971 0.0 0.0 0.0 16.28999089631971 0.0 0.0 0.0 34.40246978574605" Properties=species:S:1:pos:R:3:initial_magmoms:R:1 pbc="T T T"
Si      -1.35927737       1.35619137       1.35666215       0.00000000
Si       1.35733167       1.35707103      -1.35790064       0.00000000
Si      -1.35706481      -1.35786924      -1.35783184       0.00000000
Si       1.36019871      -1.35889551       1.35783184       0.00000000
Si      -2.71198268       2.71453302       0.00086006       0.00000000
Si      -2.71484972      -0.00079821      -2.71470041       0.00000000
Si      -0.00038770       2.71484253      -2.71501003       0.00000000
Si       2.71324611      -2.71662303       0.00000000       0.00000000
Si       2.71526607       2.71464705      -0.00058484       0.00000000
Si       2.71526607      -0.00039096      -2.71494123       0.00000000
