10
Lattice="16.28999089631971 0.0 0.0 0.0 16.28999089631971 0.0 0.0 0.0 34.40246978574605" Properties=species:S:1:pos:R:3:initial_magmoms:R:1 pbc="T T T"
Si      -1.34742735      -1.36161594      -1.34740788       0.00000000
Si       1.13485914      -1.30214115       1.58199846       0.00000000
Si      -1.37686338       1.34550513       1.33591745       0.00000000
Si       1.36754550       1.35062019      -1.34524053       0.00000000
Si       1.75324383       0.82380159       2.72815178       0.00000000
Si      -2.35470321      -0.36404892       2.69901287       0.00000000
Si       0.15781752       2.78555742       2.46376865       0.00000000
Si       2.69693982      -2.68165980       0.02139835       0.00000000
Si      -2.70547578      -0.00452862      -2.70503331       0.00000000
Si       0.00847080       2.71041165      -2.70527413       0.00000000
