10
Lattice="16.28999089631971 0.0 0.0 0.0 16.28999089631971 0.0 0.0 0.0 34.40246978574605" Properties=species:S:1:pos:R:3:initial_magmoms:R:1 pbc="T T T"
Si      -1.07460243      -0.98941371       1.94886660       0.00000000
Si       1.28502036      -1.36274793      -1.57697569       0.00000000
Si       1.50853545       1.29447428       1.46196817       0.00000000
Si      -1.40931143       1.34974788      -1.56073772       0.00000000
Si       0.87114033      -2.19156684       2.78020275       0.00000000
Si      -1.53813601       1.07921170       3.25918860       0.00000000
Si       2.55642228       2.81344510      -0.00815339       0.00000000
Si       2.53350225      -2.85456984      -0.25561049       0.00000000
Si       2.65623111      -0.00574206      -2.95321286       0.00000000
Si      -2.69425783       2.91716353      -0.25299590       0.00000000
