10
Lattice="16.28999089631971 0.0 0.0 0.0 16.28999089631971 0.0 0.0 0.0 34.40246978574605" Properties=species:S:1:pos:R:3:initial_magmoms:R:1 pbc="T T T"
Si       0.14858109      -2.34476631      -0.33036710       0.00000000
Si       1.99831059       1.30026780      -0.35358878       0.00000000
Si      -0.36388602      -0.29647800       2.36496470       0.00000000
Si      -1.92107970       0.77587641      -1.25933751       0.00000000
Si       3.29523894       0.71625501       1.52275737       0.00000000
Si      -0.42323049       1.92417480       3.13272505       0.00000000
Si      -1.79536977      -3.11036373       0.94689411       0.00000000
Si      -0.10327860      -2.55122577      -2.70014816       0.00000000
Si      -2.50219287      -1.37705886       2.46142928       0.00000000
Si       1.18754100       3.59430705      -0.39841523       0.00000000
