10
Lattice="16.28999089631971 0.0 0.0 0.0 16.28999089631971 0.0 0.0 0.0 34.40246978574605" Properties=species:S:1:pos:R:3:initial_magmoms:R:1 pbc="T T T"
Si       0.66354057       2.17666980       0.62523084       0.00000000
Si       1.77842817      -1.46267910       0.64470264       0.00000000
Si       0.64521432      -0.25901100      -2.41343781       0.00000000
Si      -1.89408717      -0.96560604       1.44934246       0.00000000
Si       1.91563884      -0.88016499       2.91010177       0.00000000
Si       0.57590037      -3.49063749       0.79610800       0.00000000
Si      -1.15631307       2.52376083       2.48822882       0.00000000
Si      -1.18284948       0.87332319      -3.48796515       0.00000000
Si       0.24032637       3.62745720      -1.22885691       0.00000000
Si      -2.50748549      -2.39497209      -1.71341597       0.00000000
