10
Lattice="16.28999089631971 0.0 0.0 0.0 16.28999089631971 0.0 0.0 0.0 34.40246978574605" Properties=species:S:1:pos:R:3:initial_magmoms:R:1 pbc="T T T"
Si       1.35915615      -1.35584928       1.36041203       0.00000000
Si      -1.35917244       1.36062225       1.35999920       0.00000000
Si      -1.35246096      -1.35220032      -1.37822219       0.00000000
Si       1.35148356       1.36839258      -1.37790569       0.00000000
Si       2.71318095      -2.71101438       0.00326824       0.00000000
Si      -2.63583603       0.09329283      -2.78944670       0.00000000
Si       0.00022806      -2.71264338       2.71789984       0.00000000
Si      -2.71303434       2.71793763       0.00423151       0.00000000
Si      -2.71375110      -2.71731861       0.00216736       0.00000000
Si       2.71448415       0.00245979       2.71776223       0.00000000
