10
Lattice="16.28999089631971 0.0 0.0 0.0 16.28999089631971 0.0 0.0 0.0 34.40246978574605" Properties=species:S:1:pos:R:3:initial_magmoms:R:1 pbc="T T T"
Si       1.35386190      -1.35731538       1.35576769       0.00000000
Si      -1.35861858       1.35617508       1.35566448       0.00000000
Si      -1.34371323      -1.36347300      -1.36503228       0.00000000
Si       1.35679410       1.34408790      -1.37432439       0.00000000
Si       0.07719831      -2.62464480      -2.79367820       0.00000000
Si       2.71251306      -0.00045612       2.71349632       0.00000000
Si       2.70977634       2.71661814      -0.00574522       0.00000000
Si      -0.00180819       2.71440270       2.71325550       0.00000000
Si      -0.00215028      -2.71551042       2.71356513       0.00000000
Si      -2.71724530      -0.00083079       2.71342752       0.00000000
