10
Lattice="16.28999089631971 0.0 0.0 0.0 16.28999089631971 0.0 0.0 0.0 34.40246978574605" Properties=species:S:1:pos:R:3:initial_magmoms:R:1 pbc="T T T"
Si      -1.35172791       1.35267273       1.36020561       0.00000000
Si      -1.35650088      -1.35809730      -1.35710939       0.00000000
Si       1.35861858       1.35677781      -1.35662775       0.00000000
Si       1.35907470      -1.35979146       1.36003360       0.00000000
Si      -0.00847080      -2.71041165       2.70527413       0.00000000
Si      -2.71432125      -0.00006516      -2.71394355       0.00000000
Si       2.71362078       2.71490769       0.00223616       0.00000000
Si      -2.71394658      -2.71494027       0.00024082       0.00000000
Si      -2.71402803       2.71490769       0.00313063       0.00000000
Si       0.00109143      -2.71513575      -2.71384035       0.00000000
