10
Lattice="16.28999089631971 0.0 0.0 0.0 16.28999089631971 0.0 0.0 0.0 34.40246978574605" Properties=species:S:1:pos:R:3:initial_magmoms:R:1 pbc="T T T"
Si       1.35172791      -1.35267273      -1.36020561       0.00000000
Si      -1.37801997      -1.33866333       1.36044643       0.00000000
Si      -1.36230012       1.36223496      -1.35707498       0.00000000
Si       1.36572102       1.36208835       1.35948316       0.00000000
Si      -0.12624750       2.58797601       2.69890967       0.00000000
Si      -0.03360627      -2.71757925       2.68098597       0.00000000
Si      -2.64732048       0.13486491       2.76138459       0.00000000
Si       2.71080261      -2.71246419      -0.00017201       0.00000000
Si       2.71034649       0.00410508      -2.71683336       0.00000000
Si      -0.00477297      -2.71077003      -2.71731500       0.00000000
