10
Lattice="16.28999089631971 0.0 0.0 0.0 16.28999089631971 0.0 0.0 0.0 34.40246978574605" Properties=species:S:1:pos:R:3:initial_magmoms:R:1 pbc="T T T"
Si      -1.83283677       1.10493441      -1.00094042       0.00000000
Si       0.97050933      -1.46473164      -1.58898216       0.00000000
Si       1.36417347       1.99233216       0.42824218       0.00000000
Si      -2.61858492      -0.87649974       0.62554046       0.00000000
Si       0.01466100      -2.36708361       1.72518162       0.00000000
Si       2.42377281       0.00218286      -2.69051546       0.00000000
Si      -0.65681280       2.40077133      -2.69890967       0.00000000
Si       1.16813961       2.03571243       2.89311172       0.00000000
Si      -2.31917472       3.06377433       0.33690357       0.00000000
Si       0.30359673       3.73181094      -1.01958657       0.00000000
