10
Lattice="16.28999089631971 0.0 0.0 0.0 16.28999089631971 0.0 0.0 0.0 34.40246978574605" Properties=species:S:1:pos:R:3:initial_magmoms:R:1 pbc="T T T"
Si       1.83283677      -1.10493441       1.00094042       0.00000000
Si      -1.34504901      -1.15727418      -1.63549433       0.00000000
Si      -0.48633795       1.95883992       1.33784399       0.00000000
Si       1.17602397       1.29583692      -1.69796925       0.00000000
Si      -0.78574815      -1.98143415       1.62648088       0.00000000
Si       2.13643350       2.62687653      -0.01864615       0.00000000
Si       3.19701024       0.88739775       1.42918260       0.00000000
Si      -2.75753047      -2.50426170      -0.34240797       0.00000000
Si       2.80334610      -2.56966605      -0.58804174       0.00000000
Si      -0.07574850      -2.63080242      -3.03643249       0.00000000
