10
Lattice="16.28999089631971 0.0 0.0 0.0 16.28999089631971 0.0 0.0 0.0 34.40246978574605" Properties=species:S:1:pos:R:3:initial_magmoms:R:1 pbc="T T T"
Si       1.59123978      -0.11445354       1.72401193       0.00000000
Si      -0.34370271       2.37553812       0.00767176       0.00000000
Si       1.22074002      -0.77690268      -1.94663044       0.00000000
Si      -1.88583466      -1.47016110       0.54142637       0.00000000
Si      -1.74376142       2.54062098      -1.86685107       0.00000000
Si       1.19619099      -2.31993383       2.51141610       0.00000000
Si       3.53519064       0.65114388       0.44675072       0.00000000
Si       0.88441668       1.61885133       3.23854711       0.00000000
Si       1.79134614      -3.03683786      -1.44683108       0.00000000
Si       3.28333095       0.44468442      -1.92303033       0.00000000
