10
Lattice="16.28999089631971 0.0 0.0 0.0 16.28999089631971 0.0 0.0 0.0 34.40246978574605" Properties=species:S:1:pos:R:3:initial_magmoms:R:1 pbc="T T T"
Si       0.96040953       1.33103961       1.67932310       0.00000000
Si       1.49196852      -1.22588766      -1.33942651       0.00000000
Si      -1.24848189       1.49182191      -1.32136520       0.00000000
Si      -1.17602397      -1.29583692       1.69796925       0.00000000
Si      -2.52107298      -2.45311110       0.06247492       0.00000000
Si      -1.66236192       0.66300300       3.03581324       0.00000000
Si       0.65681280      -2.40077133       2.69890967       0.00000000
Si       0.12624750      -2.58797601      -2.69890967       0.00000000
Si       2.02098627      -0.40843917       3.12715185       0.00000000
Si      -2.60045415       0.14227686      -2.69908168       0.00000000
