10
Lattice="16.28999089631971 0.0 0.0 0.0 16.28999089631971 0.0 0.0 0.0 34.40246978574605" Properties=species:S:1:pos:R:3:initial_magmoms:R:1 pbc="T T T"
Si      -0.96040953      -1.33103961      -1.67932310       0.00000000
Si       1.06057674      -1.73947878       1.44782875       0.00000000
Si       1.77399729       1.33511211      -1.53393818       0.00000000
Si      -2.62277145      -0.66803661       1.35649014       0.00000000
Si      -2.13643350      -2.62687653       0.01864615       0.00000000
Si      -1.98537633       2.81800451       0.03825557       0.00000000
Si      -2.20889142       0.16078230      -3.00068830       0.00000000
Si       3.31972281       1.72442749       0.35892117       0.00000000
Si      -0.30359673      -3.73181094       1.01958657       0.00000000
Si       0.53155899      -2.55692727      -3.01874961       0.00000000
