10
Lattice="16.28999089631971 0.0 0.0 0.0 16.28999089631971 0.0 0.0 0.0 34.40246978574605" Properties=species:S:1:pos:R:3:initial_magmoms:R:1 pbc="T T T"
Si       0.05348007       2.30736447       0.55941887       0.00000000
Si       2.10336480      -1.01853225       0.50461571       0.00000000
Si      -1.70774586      -1.19995398       1.24296193       0.00000000
Si       0.19603386      -0.04338027      -2.46486953       0.00000000
Si       1.36070370       1.98078255       2.51420270       0.00000000
Si       3.12689808       0.94262085       1.36013681       0.00000000
Si      -2.24081982       2.67501348       1.01710959       0.00000000
Si       0.65342448      -0.02155167       3.64091862       0.00000000
Si       1.77170040      -1.93135869       2.61909589       0.00000000
Si      -1.16813961      -2.03571243      -2.89311172       0.00000000
