10
Lattice="16.28999089631971 0.0 0.0 0.0 16.28999089631971 0.0 0.0 0.0 34.40246978574605" Properties=species:S:1:pos:R:3:initial_magmoms:R:1 pbc="T T T"
Si       1.57007907       1.02128689      -1.42113242       0.00000000
Si      -1.59213573       0.77283181      -1.56011847       0.00000000
Si       0.39952854      -2.35466967      -0.00660528       0.00000000
Si      -0.28556370       1.92178831       1.40138539       0.00000000
Si       0.56135340       3.04934954      -0.52563563       0.00000000
Si      -3.35276545       1.37492650      -0.08758874       0.00000000
Si       1.79553267      -0.59241747      -3.14617643       0.00000000
Si       1.91958102       0.02882678       3.20875455       0.00000000
Si       1.62566055      -2.72946999      -2.05355337       0.00000000
Si       3.56664663       1.36361798      -0.38764725       0.00000000
