10
Lattice="16.28999089631971 0.0 0.0 0.0 16.28999089631971 0.0 0.0 0.0 34.40246978574605" Properties=species:S:1:pos:R:3:initial_magmoms:R:1 pbc="T T T"
Si      -2.22545835       0.01607823       0.57995716       0.00000000
Si       1.12205520       0.73124574      -1.87816949       0.00000000
Si       0.96443316       0.62771627       2.03937955       0.00000000
Si       0.69243903      -2.23555815      -0.36635211       0.00000000
Si       3.19621203       0.25744716      -0.74481389       0.00000000
Si      -0.09990657      -2.93856939       1.72982595       0.00000000
Si      -2.39533047      -2.12097429       1.67258021       0.00000000
Si       3.06330192       1.35544596       1.34671983       0.00000000
Si       1.17457416      -1.50076512       3.09491672       0.00000000
Si       0.53779806      -0.81217053      -3.60197500       0.00000000
