10
Lattice="16.28999089631971 0.0 0.0 0.0 16.28999089631971 0.0 0.0 0.0 34.40246978574605" Properties=species:S:1:pos:R:3:initial_magmoms:R:1 pbc="T T T"
Si       1.35736425      -1.35631638       1.35597410       0.00000000
Si       1.35755973       1.35743593      -1.35800385       0.00000000
Si      -1.35814617      -1.35727623      -1.35783184       0.00000000
Si      -1.35692442       1.35712642       1.36330183       0.00000000
Si      -0.02068830      -2.70894622       2.71012488       0.00000000
Si      -0.00021177      -2.71422418      -2.71521645       0.00000000
Si       2.71505430       0.00004398      -2.71463160       0.00000000
Si      -2.71448415      -2.71552738      -0.00013761       0.00000000
Si       2.71526607       2.71528888      -0.00075685       0.00000000
Si      -2.71559187       0.00033883      -2.71501003       0.00000000
