10
Lattice="16.28999089631971 0.0 0.0 0.0 16.28999089631971 0.0 0.0 0.0 34.40246978574605" Properties=species:S:1:pos:R:3:initial_magmoms:R:1 pbc="T T T"
Si       0.04204449      -2.27809786       0.31306265       0.00000000
Si       1.40475186       0.35111466      -1.81187589       0.00000000
Si      -0.15118749       1.56002814       1.84067077       0.00000000
Si       2.21514678       1.67169609       1.81049979       0.00000000
Si       3.09594708       1.21727025      -0.42163691       0.00000000
Si      -1.50368103      -2.66741324      -1.57979670       0.00000000
Si      -0.07164342       1.62370575      -3.05762442       0.00000000
Si      -0.70369542      -2.30765932       2.68769445       0.00000000
Si      -0.95739588      -0.05492988       3.50895067       0.00000000
Si      -1.63372410       3.00322440      -1.49702431       0.00000000
