10
Lattice="16.28999089631971 0.0 0.0 0.0 16.28999089631971 0.0 0.0 0.0 34.40246978574605" Properties=species:S:1:pos:R:3:initial_magmoms:R:1 pbc="T T T"
Si      -0.76367520      -1.80718721      -1.29570094       0.00000000
Si       1.80472023      -0.56969714       1.42085720       0.00000000
Si       0.69757038       1.96068069      -1.17584267       0.00000000
Si      -1.86439050       1.42477227       0.61191707       0.00000000
Si      -0.49568841       3.32436546       0.46247266       0.00000000
Si      -1.67075127      -3.06998801       0.44121192       0.00000000
Si      -3.08820933      -0.62164432      -2.09807019       0.00000000
Si       1.23523812      -0.13521514       3.63035706       0.00000000
Si       3.72436641       0.70160053       0.67814186       0.00000000
Si      -3.34190979       1.63108512      -1.27681398       0.00000000
