10
Lattice="16.28999089631971 0.0 0.0 0.0 16.28999089631971 0.0 0.0 0.0 34.40246978574605" Properties=species:S:1:pos:R:3:initial_magmoms:R:1 pbc="T T T"
Si      -0.06704964      -1.08952474      -2.06469978       0.00000000
Si       1.59213573      -0.77283181       1.56011847       0.00000000
Si      -1.76062972       0.60209469       1.47252974       0.00000000
Si       0.51212502       2.27185879      -0.63878542       0.00000000
Si       3.16221480       0.24845508       0.13898606       0.00000000
Si       2.15348913       2.27651773       1.03448284       0.00000000
Si       1.30657203       1.14895651       2.96150386       0.00000000
Si      -0.72503369       2.36404390       2.55896034       0.00000000
Si      -1.94882483      -0.04588241      -3.08170616       0.00000000
Si      -3.49569458       1.14208213      -0.02941413       0.00000000
