10
Lattice="16.28999089631971 0.0 0.0 0.0 16.28999089631971 0.0 0.0 0.0 34.40246978574605" Properties=species:S:1:pos:R:3:initial_magmoms:R:1 pbc="T T T"
Si      -1.74198744      -1.59279547      -0.24766352       0.00000000
Si       1.83917358      -0.90014467       1.24980802       0.00000000
Si       0.81075330       1.51698996      -1.71372559       0.00000000
Si      -1.12182714       1.87333371       1.08027256       0.00000000
Si      -1.91570400      -0.58038989      -2.35485037       0.00000000
Si       2.02702986       2.78374923      -0.09780628       0.00000000
Si      -1.29582063       1.62805518      -2.89878813       0.00000000
Si       2.98703214      -2.32142993      -0.31533321       0.00000000
Si      -1.45554408       1.15572663       3.54357097       0.00000000
Si      -0.49692645      -1.92478730      -3.65395716       0.00000000
