10
Lattice="16.28999089631971 0.0 0.0 0.0 16.28999089631971 0.0 0.0 0.0 34.40246978574605" Properties=species:S:1:pos:R:3:initial_magmoms:R:1 pbc="T T T"
Si      -1.34118828      -1.36226754      -1.39151188       0.00000000
Si       1.36989126       1.35361755      -1.38662672       0.00000000
Si       1.45028241      -1.29549483       1.42529512       0.00000000
Si      -1.57074696       1.31232240       1.50084299       0.00000000
Si      -0.24006573       1.70033391       3.40818578       0.00000000
Si      -2.67988419       2.71823085      -0.03701708       0.00000000
Si      -2.72406267      -2.68465716      -0.02432256       0.00000000
Si       2.71836117      -2.69417052      -0.04572091       0.00000000
Si       2.73849561       2.70482418      -0.01933420       0.00000000
Si      -2.69426826      -0.00638568      -2.75047900       0.00000000
