10
Lattice="16.28999089631971 0.0 0.0 0.0 16.28999089631971 0.0 0.0 0.0 34.40246978574605" Properties=species:S:1:pos:R:3:initial_magmoms:R:1 pbc="T T T"
Si      -1.36870209      -1.89959319       0.14944441       0.00000000
Si       1.19325879      -1.36368477      -1.63831533       0.00000000
Si      -1.60493967       1.82244375      -0.32675484       0.00000000
Si       1.50032529       0.43365609       1.93032366       0.00000000
Si       0.15727995       2.98831905      -1.41229098       0.00000000
Si       0.49568841      -3.32436546      -0.46247266       0.00000000
Si       0.32632128       0.03334563      -3.43773752       0.00000000
Si       0.59585562       2.51317233       2.63151519       0.00000000
Si      -2.59996545      -1.62730584       2.12772514       0.00000000
Si      -2.84622138      -1.69328034      -1.73928664       0.00000000
