10
Lattice="16.28999089631971 0.0 0.0 0.0 16.28999089631971 0.0 0.0 0.0 34.40246978574605" Properties=species:S:1:pos:R:3:initial_magmoms:R:1 pbc="T T T"
Si       1.05178014       0.11942199       2.10698044       0.00000000
Si       0.84691710       1.12756122      -1.92702102       0.00000000
Si       0.28556370      -1.92178831      -1.40138539       0.00000000
Si      -2.03160572       1.21508739      -0.40254352       0.00000000
Si       2.20514472      -1.89296153       1.80736916       0.00000000
Si      -1.30657203      -1.14895651      -2.96150386       0.00000000
Si      -3.06720175      -0.54686182      -1.48897413       0.00000000
Si       1.85564277      -0.90050143      -2.82251781       0.00000000
Si       2.25430794       2.14738038       1.95557509       0.00000000
Si       1.12109409       3.35104848      -1.10256537       0.00000000
