10
Lattice="16.28999089631971 0.0 0.0 0.0 16.28999089631971 0.0 0.0 0.0 34.40246978574605" Properties=species:S:1:pos:R:3:initial_magmoms:R:1 pbc="T T T"
Si       0.11241729       1.55572758       1.72322067       0.00000000
Si       1.65745863       0.20020410      -1.64774161       0.00000000
Si      -2.00459853       0.67144122      -1.05457390       0.00000000
Si       0.24237891      -2.31029667       0.53402984       0.00000000
Si      -1.70914680      -0.44704647      -3.10654476       0.00000000
Si      -0.83670327       0.42005394       3.59206709       0.00000000
Si       1.50060222       2.16011916      -2.79141796       0.00000000
Si      -0.06706593      -3.58288776      -1.37468906       0.00000000
Si       2.44799604      -2.73088818       1.23473973       0.00000000
Si       0.53898723      -0.02091636      -3.85744789       0.00000000
