10
Lattice="16.28999089631971 0.0 0.0 0.0 16.28999089631971 0.0 0.0 0.0 34.40246978574605" Properties=species:S:1:pos:R:3:initial_magmoms:R:1 pbc="T T T"
Si       1.34659656       1.33885881      -1.35593970       0.00000000
Si      -1.13003730       1.53124371       1.35353153       0.00000000
Si       1.10913723      -1.40590845       1.53786006       0.00000000
Si      -1.37357280      -1.37060802      -1.35394436       0.00000000
Si      -0.98787447      -1.89742662       2.71944795       0.00000000
Si      -2.58330078       0.06432921       2.45506482       0.00000000
Si       2.67988419      -2.71823085       0.03701708       0.00000000
Si       2.70523143       2.70539433       0.02827885       0.00000000
Si       2.69866656      -0.00827532      -2.71287708       0.00000000
Si      -0.01902672       2.70409113      -2.71174179       0.00000000
