10
Lattice="16.28999089631971 0.0 0.0 0.0 16.28999089631971 0.0 0.0 0.0 34.40246978574605" Properties=species:S:1:pos:R:3:initial_magmoms:R:1 pbc="T T T"
Si      -1.34659656      -1.33885881       1.35593970       0.00000000
Si       1.35207000      -1.34713413      -1.35693737       0.00000000
Si      -1.36562328       1.36523232      -1.35580209       0.00000000
Si       1.35863487       1.36653552       1.38421855       0.00000000
Si      -2.47663386       0.19238490       2.70947123       0.00000000
Si       2.70317889      -2.70347211       0.00633006       0.00000000
Si      -0.00612504      -2.70684414      -2.71449399       0.00000000
Si       2.70886410       0.00762372      -2.71514764       0.00000000
Si       2.69985573       2.72965014      -0.00106648       0.00000000
Si      -2.72016936      -2.70946683       0.00199534       0.00000000
