10
Lattice="16.28999089631971 0.0 0.0 0.0 16.28999089631971 0.0 0.0 0.0 34.40246978574605" Properties=species:S:1:pos:R:3:initial_magmoms:R:1 pbc="T T T"
Si      -0.04738761      -0.92859516       2.11079912       0.00000000
Si       1.13054229      -1.09046889      -1.71279672       0.00000000
Si       0.51852699       2.27980179      -0.01128402       0.00000000
Si      -2.30415534      -0.00882918      -0.48129082       0.00000000
Si      -1.97249094       0.90399726      -2.59577100       0.00000000
Si       1.02102462       0.84256767       3.19681689       0.00000000
Si      -0.19391616       2.64212397       2.23254952       0.00000000
Si      -0.94895766       2.86515036      -1.74024991       0.00000000
Si       1.78357581      -2.33627922       1.97855595       0.00000000
Si      -0.18837756      -0.34847568      -3.60968116       0.00000000
