10
Lattice="16.28999089631971 0.0 0.0 0.0 16.28999089631971 0.0 0.0 0.0 34.40246978574605" Properties=species:S:1:pos:R:3:initial_magmoms:R:1 pbc="T T T"
Si       1.37687967       1.32630248      -1.35502804       0.00000000
Si       1.35661491      -1.35506218       1.35724700       0.00000000
Si      -1.35809730      -1.33674681      -1.37832540       0.00000000
Si      -1.35589815       1.36080470       1.35714379       0.00000000
Si       0.08040744       2.67399047      -2.70752749       0.00000000
Si       2.71142163      -2.71219119      -0.00488515       0.00000000
Si      -2.71636564      -2.71204458      -0.00584842       0.00000000
Si      -0.00016290      -2.71440663       2.71411557       0.00000000
Si       2.71437012       0.00061250       2.71425318       0.00000000
Si      -2.71552508       0.00099858       2.71404676       0.00000000
