10
Lattice="16.28999089631971 0.0 0.0 0.0 16.28999089631971 0.0 0.0 0.0 34.40246978574605" Properties=species:S:1:pos:R:3:initial_magmoms:R:1 pbc="T T T"
Si       1.28021481      -1.37052657       1.44137828       0.00000000
Si      -1.81985364      -0.85092444      -1.25190795       0.00000000
Si      -1.38148974       1.33785186       1.42545337       0.00000000
Si       1.76091642       1.00097163      -1.48950878       0.00000000
Si      -0.38820699      -0.72330858      -3.13215883       0.00000000
Si       2.74463694      -2.55588471       0.13035447       0.00000000
Si      -2.60555292       2.72883305      -0.01389173       0.00000000
Si      -3.49576884       0.86439627      -1.22720524       0.00000000
Si      -2.72956869      -2.68161093      -0.07111683       0.00000000
Si       2.73854448       2.68534201      -0.06221690       0.00000000
