10
Lattice="16.28999089631971 0.0 0.0 0.0 16.28999089631971 0.0 0.0 0.0 34.40246978574605" Properties=species:S:1:pos:R:3:initial_magmoms:R:1 pbc="T T T"
Si       1.35635427       1.35715248       1.35769423       0.00000000
Si       1.35668007      -1.35606105      -1.35993039       0.00000000
Si      -1.35923760      -1.35816246       1.35800385       0.00000000
Si      -1.36197432       1.35891180      -1.36123769       0.00000000
Si       2.69234604       0.00884547      -2.70201965       0.00000000
Si       2.71394658       0.00022806       2.71470041       0.00000000
Si      -0.00158013       2.71410043       2.71507884       0.00000000
Si       2.71401174      -2.71542897       0.00113528       0.00000000
Si      -2.71598283       0.00000000       2.71504443       0.00000000
Si       2.71546155       2.71560159       0.00072245       0.00000000
