10
Lattice="16.28999089631971 0.0 0.0 0.0 16.28999089631971 0.0 0.0 0.0 34.40246978574605" Properties=species:S:1:pos:R:3:initial_magmoms:R:1 pbc="T T T"
Si       1.29977910      -1.31621571       1.39749791       0.00000000
Si      -1.34016201      -1.35814617      -1.35518285       0.00000000
Si       1.37805255       1.35262984      -1.35415077       0.00000000
Si      -1.43902602       1.17121842       1.49348085       0.00000000
Si       2.35936215       0.34376787       2.73609876       0.00000000
Si       0.10669950       1.56053380       3.38634020       0.00000000
Si      -2.68146432      -2.72082096       0.00866943       0.00000000
Si      -2.69379585      -0.00658116      -2.71026249       0.00000000
Si      -2.69610903       2.71782590       0.05611046       0.00000000
Si       0.02068830       2.70894622      -2.71012488       0.00000000
