10
Lattice="16.28999089631971 0.0 0.0 0.0 16.28999089631971 0.0 0.0 0.0 34.40246978574605" Properties=species:S:1:pos:R:3:initial_magmoms:R:1 pbc="T T T"
Si       1.23551505       1.23380460      -1.72875948       0.00000000
Si      -1.15711128      -1.34350146      -1.76976724       0.00000000
Si       2.12343408      -0.39328947       1.34107783       0.00000000
Si      -2.21671062       0.64664784       1.34899040       0.00000000
Si       2.29509810       2.89378818      -0.39015863       0.00000000
Si      -2.61037476      -2.81041596      -0.66823395       0.00000000
Si       2.98323657       1.86891912       1.66397959       0.00000000
Si      -3.58088409      -1.34568432       0.92074822       0.00000000
Si       1.47473370      -1.58097708       3.30456548       0.00000000
Si      -0.06426405       2.55002031      -3.12625738       0.00000000
