10
Lattice="16.28999089631971 0.0 0.0 0.0 16.28999089631971 0.0 0.0 0.0 34.40246978574605" Properties=species:S:1:pos:R:3:initial_magmoms:R:1 pbc="T T T"
Si       0.97762806       1.68437038       1.42729188       0.00000000
Si      -1.76091642      -1.00097163       1.48950878       0.00000000
Si      -0.06221151       1.56740655      -1.98708777       0.00000000
Si       1.91422161      -1.93433976       0.14552253       0.00000000
Si      -2.14912341      -1.72428021      -1.64265005       0.00000000
Si       2.24973045       0.33891345       2.91872234       0.00000000
Si       1.08564705       0.14612130      -3.55222900       0.00000000
Si      -0.48070161      -2.37149820       2.93088706       0.00000000
Si       2.90256849       2.55812363       0.25994421       0.00000000
Si       2.16756369       2.67686144      -2.00236247       0.00000000
