10
Lattice="16.28999089631971 0.0 0.0 0.0 16.28999089631971 0.0 0.0 0.0 34.40246978574605" Properties=species:S:1:pos:R:3:initial_magmoms:R:1 pbc="T T T"
Si      -1.35557235       1.35672302      -1.35673096       0.00000000
Si      -1.35612621      -1.35958140       1.35569888       0.00000000
Si       1.35824391      -1.35751257      -1.35741901       0.00000000
Si       1.35777150       1.35846930       1.35858869       0.00000000
Si      -0.00767259      -2.70852372       2.71397796       0.00000000
Si      -2.71173114       0.00090396      -2.71428758       0.00000000
Si      -2.71326240       0.00036265       2.71387475       0.00000000
Si      -2.71306692       2.71411496      -0.00010321       0.00000000
Si      -2.71324611      -2.71446957      -0.00030962       0.00000000
Si       0.00000000       2.71413125       2.71466601       0.00000000
