10
Lattice="16.28999089631971 0.0 0.0 0.0 16.28999089631971 0.0 0.0 0.0 34.40246978574605" Properties=species:S:1:pos:R:3:initial_magmoms:R:1 pbc="T T T"
Si      -1.35462753       1.35231435      -1.35965517       0.00000000
Si       1.35698958       1.35698958       1.35731580       0.00000000
Si      -1.35773892      -1.35804354       1.35745341       0.00000000
Si       1.35448092      -1.35990060      -1.36127209       0.00000000
Si      -0.00658116      -2.71020707      -2.71501003       0.00000000
Si      -2.71389771      -2.71386259      -0.00010321       0.00000000
Si       2.71331589      -2.71494826       0.00027522       0.00000000
Si      -0.00216657      -2.71476656       2.71418437       0.00000000
Si       2.71477449      -0.00008145       2.71418437       0.00000000
Si      -0.00074934       2.71484253       2.71428758       0.00000000
