10
Lattice="16.28999089631971 0.0 0.0 0.0 16.28999089631971 0.0 0.0 0.0 34.40246978574605" Properties=species:S:1:pos:R:3:initial_magmoms:R:1 pbc="T T T"
Si      -1.32307380      -0.68890410      -1.84517750       0.00000000
Si       1.66733593      -1.70346159       0.41898791       0.00000000
Si      -1.33291296       1.26312660       1.76897598       0.00000000
Si       1.38554825       1.81034028      -1.40169501       0.00000000
Si       0.51121410       0.13449024      -3.09319659       0.00000000
Si       0.23964219      -2.51867998       2.09490517       0.00000000
Si       2.92865597       1.80621891       1.00386463       0.00000000
Si      -3.21698178       0.91359207      -1.79226647       0.00000000
Si       3.73590692      -0.54773496       0.74863256       0.00000000
Si      -0.13675455       1.10530908       3.76521481       0.00000000
