10
Lattice="16.28999089631971 0.0 0.0 0.0 16.28999089631971 0.0 0.0 0.0 34.40246978574605" Properties=species:S:1:pos:R:3:initial_magmoms:R:1 pbc="T T T"
Si      -1.42587999       1.23936275      -1.52702328       0.00000000
Si       0.88202205       2.00338330       1.05890861       0.00000000
Si      -1.81312587      -1.10625457       1.19627775       0.00000000
Si       1.27374768      -1.46582374      -1.49544179       0.00000000
Si      -2.70308115       2.73972388      -0.27841934       0.00000000
Si      -0.08117307       2.61637600      -2.89318052       0.00000000
Si      -1.01188593       3.60587947       1.11181964       0.00000000
Si       2.63911156      -0.10094703      -2.88678166       0.00000000
Si       2.71630995       2.82677764      -0.18911048       0.00000000
Si       2.10214305      -3.31887640      -0.09161383       0.00000000
