10
Lattice="16.28999089631971 0.0 0.0 0.0 16.28999089631971 0.0 0.0 0.0 34.40246978574605" Properties=species:S:1:pos:R:3:initial_magmoms:R:1 pbc="T T T"
Si      -1.35677781      -1.35764118       1.35704058       0.00000000
Si       1.35773892      -1.35785295      -1.35697178       0.00000000
Si      -1.35749457       1.35749457      -1.35759102       0.00000000
Si       1.36060596       1.35747828       1.35858869       0.00000000
Si       2.71331127      -0.00086337       2.71439079       0.00000000
Si       0.00074934      -2.71484253      -2.71428758       0.00000000
Si      -2.71448415      -2.71549413      -0.00020641       0.00000000
Si      -0.00141723      -2.71547784       2.71456280       0.00000000
Si      -2.71507059       2.71536381       0.00044723       0.00000000
Si       2.71552383      -2.71492398      -0.00010321       0.00000000
