10
Lattice="16.28999089631971 0.0 0.0 0.0 16.28999089631971 0.0 0.0 0.0 34.40246978574605" Properties=species:S:1:pos:R:3:initial_magmoms:R:1 pbc="T T T"
Si      -1.37060802      -1.32818886       1.34778631       0.00000000
Si      -1.35270531       1.35834165      -1.35580209       0.00000000
Si       1.35927737      -1.35619137      -1.35666215       0.00000000
Si       1.35883265       1.37645613       1.37090478       0.00000000
Si       0.08275452      -2.50421283       2.70424205       0.00000000
Si      -2.71331127       0.00086337      -2.71439079       0.00000000
Si       0.00221256      -2.71406061      -2.71449399       0.00000000
Si      -2.71472850      -2.71461447       0.00017201       0.00000000
Si       2.71322072       2.71624347       0.00017201       0.00000000
Si       2.71660904       0.00087966      -2.71456280       0.00000000
