10
Lattice="16.28999089631971 0.0 0.0 0.0 16.28999089631971 0.0 0.0 0.0 34.40246978574605" Properties=species:S:1:pos:R:3:initial_magmoms:R:1 pbc="T T T"
Si      -0.39312657       2.38150026       0.07272686       0.00000000
Si      -1.94505858      -1.42320843       0.32692685       0.00000000
Si       0.37338309      -1.03887846      -2.26344296       0.00000000
Si       1.74415794      -0.20338065       2.01987334       0.00000000
Si      -0.60662331      -3.41057214       1.00407104       0.00000000
Si      -3.17428569       1.03131990      -1.76065058       0.00000000
Si       0.17189208       0.14219541       3.78743882       0.00000000
Si      -1.91078442       2.97074214      -1.68352020       0.00000000
Si       1.47121573       3.54476916      -0.89694169       0.00000000
Si      -3.54053376      -0.35070741       1.70041182       0.00000000
