10
Lattice="16.28999089631971 0.0 0.0 0.0 16.28999089631971 0.0 0.0 0.0 34.40246978574605" Properties=species:S:1:pos:R:3:initial_magmoms:R:1 pbc="T T T"
Si      -0.50427324       2.25992799      -0.50939765       0.00000000
Si      -1.25143038      -0.69177114      -1.92788108       0.00000000
Si       2.46099546      -0.19886832       0.15914591       0.00000000
Si      -0.81285471      -1.16691786       2.11592509       0.00000000
Si       0.14876028       1.01411766       3.18195501       0.00000000
Si       1.69005492       2.92263777      -0.99901388       0.00000000
Si       0.09161496      -3.24643410       1.41473356       0.00000000
Si       2.31692670      -2.45962710       1.14267867       0.00000000
Si      -3.01365000      -1.85764644      -0.84234494       0.00000000
Si       0.34404480      -1.76427216      -3.30136605       0.00000000
