10
Lattice="16.28999089631971 0.0 0.0 0.0 16.28999089631971 0.0 0.0 0.0 34.40246978574605" Properties=species:S:1:pos:R:3:initial_magmoms:R:1 pbc="T T T"
Si      -2.19432816      -0.66270978       0.48961622       0.00000000
Si      -0.05098770       2.32412688      -0.31959912       0.00000000
Si       1.45326348      -0.80229879       1.72700495       0.00000000
Si       0.20592189      -0.88220124      -2.55655217       0.00000000
Si       2.06011552       2.35159182      -1.31665206       0.00000000
Si       0.77094054      -3.12150609       1.15815979       0.00000000
Si      -1.69005492      -2.92263777       0.99901388       0.00000000
Si      -3.51324801       0.07928343      -1.40726822       0.00000000
Si      -0.57230028       3.41291790       1.71630577       0.00000000
Si       3.49717697       0.33132231      -1.64123954       0.00000000
