10
Lattice="16.28999089631971 0.0 0.0 0.0 16.28999089631971 0.0 0.0 0.0 34.40246978574605" Properties=species:S:1:pos:R:3:initial_magmoms:R:1 pbc="T T T"
Si       0.77445918      -1.86927750       1.20590877       0.00000000
Si      -1.87639623       1.03276971       0.99247741       0.00000000
Si      -0.92603763      -0.99714348      -1.95591911       0.00000000
Si       1.59897753       1.83780522       0.13994933       0.00000000
Si       2.07868545      -0.51750072       2.55970485       0.00000000
Si      -2.32658667       2.39764365      -1.02667348       0.00000000
Si      -0.63021123       2.37192174       2.54326046       0.00000000
Si       3.45559674       0.63798156       1.06589232       0.00000000
Si      -2.88619704       0.49345668      -2.37611111       0.00000000
Si       2.58475059      -2.85307947      -0.04675298       0.00000000
