10
Lattice="16.28999089631971 0.0 0.0 0.0 16.28999089631971 0.0 0.0 0.0 34.40246978574605" Properties=species:S:1:pos:R:3:initial_magmoms:R:1 pbc="T T T"
Si      -1.68909381       1.17431256      -1.17340010       0.00000000
Si       1.82896368       1.42531703      -0.52219538       0.00000000
Si       0.30351528      -2.08818252      -1.10160210       0.00000000
Si      -0.33609528       0.31079691       2.36052678       0.00000000
Si       0.73523286       3.37096205       0.28567827       0.00000000
Si      -0.89355537      -1.64045187      -3.10840249       0.00000000
Si      -1.11961170       0.73983057      -3.38289995       0.00000000
Si       0.28209393       2.61328157       2.53009665       0.00000000
Si      -3.70286361       0.34731909      -0.35131822       0.00000000
Si       3.71073887       0.38167470       0.49481100       0.00000000
