10
Lattice="16.28999089631971 0.0 0.0 0.0 16.28999089631971 0.0 0.0 0.0 34.40246978574605" Properties=species:S:1:pos:R:3:initial_magmoms:R:1 pbc="T T T"
Si      -0.93050109      -1.62251658       1.47434072       0.00000000
Si       1.68700869       0.92372445       1.41273275       0.00000000
Si       1.29868767      -2.15663310      -0.92897041       0.00000000
Si      -1.91422161       1.93433976      -0.14552253       0.00000000
Si       0.33550884       2.27325321       2.77319982       0.00000000
Si      -2.17668609      -2.96166861      -0.07644233       0.00000000
Si      -2.39492322      -0.43715844       2.78536454       0.00000000
Si      -2.62687653      -1.59679467      -2.09559322       0.00000000
Si       2.69125461       2.62252125       0.06629360       0.00000000
Si      -1.03666302      -0.27378603      -3.65963357       0.00000000
