10
Lattice="16.28999089631971 0.0 0.0 0.0 16.28999089631971 0.0 0.0 0.0 34.40246978574605" Properties=species:S:1:pos:R:3:initial_magmoms:R:1 pbc="T T T"
Si      -1.41122714      -1.86857703      -0.17428301       0.00000000
Si       1.00238886       1.20218571      -1.77055850       0.00000000
Si       1.82806380      -1.13233419       1.07452734       0.00000000
Si      -1.61763121       1.64594160       0.80852730       0.00000000
Si       1.81353312       2.75056650      -0.09587974       0.00000000
Si      -0.08747730      -3.36048039      -1.42319657       0.00000000
Si       1.55388681      -3.35582145       0.25007169       0.00000000
Si       1.18284948      -0.87332319       3.48796515       0.00000000
Si      -1.83845193       3.16781856      -1.02801518       0.00000000
Si      -3.64701239      -1.03943232      -0.44657871       0.00000000
