10
Lattice="16.28999089631971 0.0 0.0 0.0 16.28999089631971 0.0 0.0 0.0 34.40246978574605" Properties=species:S:1:pos:R:3:initial_magmoms:R:1 pbc="T T T"
Si      -1.32600616      -1.37152026      -1.34394011       0.00000000
Si      -1.35196804       1.35873261       1.35748781       0.00000000
Si       1.36190427      -1.35721764       1.35662775       0.00000000
Si       1.37760783       1.35119034      -1.36369058       0.00000000
Si      -2.63125432       0.00643455      -2.63976491       0.00000000
Si       0.23269450      -2.58196500      -2.69222182       0.00000000
Si      -2.71013050      -0.00076563       2.71456280       0.00000000
Si      -2.70872956      -2.71637379      -0.00292421       0.00000000
Si      -2.71330705       2.71451673       0.00206415       0.00000000
Si       0.00407576       2.71383255       2.71476921       0.00000000
