10
Lattice="16.28999089631971 0.0 0.0 0.0 16.28999089631971 0.0 0.0 0.0 34.40246978574605" Properties=species:S:1:pos:R:3:initial_magmoms:R:1 pbc="T T T"
Si      -1.83191150      -1.51361793       0.16540717       0.00000000
Si       1.54458522      -0.19109799       1.89437306       0.00000000
Si      -0.67794093       2.28478653      -0.86642669       0.00000000
Si       0.92742228       1.39154067      -2.39073217       0.00000000
Si       0.67745223      -0.94688883      -2.80208273       0.00000000
Si       2.00319759      -2.65285908      -0.56571453       0.00000000
Si       0.66241656       3.40387695       0.78970914       0.00000000
Si       2.14751070      -2.50260012       1.85856007       0.00000000
Si       3.56066820      -0.09904320      -1.29109101       0.00000000
Si       3.52452069       0.80729982       1.14064893       0.00000000
