10
Lattice="16.28999089631971 0.0 0.0 0.0 16.28999089631971 0.0 0.0 0.0 34.40246978574605" Properties=species:S:1:pos:R:3:initial_magmoms:R:1 pbc="T T T"
Si       2.34398439      -0.30007809       0.33009188       0.00000000
Si      -1.34035749      -1.11909042      -1.65613582       0.00000000
Si       0.28145862       2.20587777      -1.07504338       0.00000000
Si      -1.32595713      -0.86455917       2.01309605       0.00000000
Si      -2.77741894       0.90117909      -1.33154834       0.00000000
Si      -1.85339312       2.75429691      -0.31791340       0.00000000
Si       2.37138417       0.63798156       2.49270115       0.00000000
Si      -0.66241656      -3.40387695      -0.78970914       0.00000000
Si      -1.18356624       2.84325660       1.93197498       0.00000000
Si       1.17657783       2.75592591       2.25546158       0.00000000
