10
Lattice="16.28999089631971 0.0 0.0 0.0 16.28999089631971 0.0 0.0 0.0 34.40246978574605" Properties=species:S:1:pos:R:3:initial_magmoms:R:1 pbc="T T T"
Si       1.50156333      -1.59123978       1.04556045       0.00000000
Si      -0.62687667       1.97068275       1.31568879       0.00000000
Si      -2.05831385      -1.38815235      -0.30098738       0.00000000
Si       1.32595713       0.86455917      -2.01309605       0.00000000
Si       2.20812579      -2.73041577      -0.90843212       0.00000000
Si      -0.01440036      -0.25453125      -3.66923187       0.00000000
Si       0.14239089       3.70781577      -0.08112107       0.00000000
Si      -2.92676633      -1.47422871       1.88759577       0.00000000
Si       3.24201951      -0.27904770       2.00284411       0.00000000
Si       0.66354057      -2.53931778      -2.80280518       0.00000000
