10
Lattice="16.28999089631971 0.0 0.0 0.0 16.28999089631971 0.0 0.0 0.0 34.40246978574605" Properties=species:S:1:pos:R:3:initial_magmoms:R:1 pbc="T T T"
Si       1.57270176      -1.60795332       0.59509425       0.00000000
Si       0.85149459       1.38010509      -1.68888699       0.00000000
Si      -0.63956169       1.61371998       1.60508253       0.00000000
Si      -2.07928329      -1.19070126      -0.33704118       0.00000000
Si      -2.28127278       2.37454443       0.07606390       0.00000000
Si       0.76155750      -3.15633411      -1.07958451       0.00000000
Si       1.18234449      -1.60438581       2.95008224       0.00000000
Si      -1.85846257      -2.71257822       1.49950129       0.00000000
Si      -1.08128133       2.81564505      -1.99589480       0.00000000
Si       1.15123059       3.17163042       1.46007604       0.00000000
