10
Lattice="16.28999089631971 0.0 0.0 0.0 16.28999089631971 0.0 0.0 0.0 34.40246978574605" Properties=species:S:1:pos:R:3:initial_magmoms:R:1 pbc="T T T"
Si      -1.35693611       1.35728117       1.35731580       0.00000000
Si      -1.35839471      -1.35758564      -1.35659335       0.00000000
Si       1.35736262      -1.35746430       1.35786624       0.00000000
Si       1.35962693       1.35980612      -1.35690297       0.00000000
Si      -0.00110609       2.71252772      -2.71476921       0.00000000
Si       2.71337480      -0.00147262       2.71514764       0.00000000
Si      -2.71472103       2.71435220       0.00044723       0.00000000
Si       2.71552508      -0.00099858      -2.71404676       0.00000000
Si       2.71539476       2.71475945       0.00020641       0.00000000
Si       0.00012869       2.71515041       2.71514764       0.00000000
