10
Lattice="16.28999089631971 0.0 0.0 0.0 16.28999089631971 0.0 0.0 0.0 34.40246978574605" Properties=species:S:1:pos:R:3:initial_magmoms:R:1 pbc="T T T"
Si      -1.37691129      -1.15548228       1.49381253       0.00000000
Si       1.30287583       1.49416767       1.34613641       0.00000000
Si      -1.85661921       1.19982366      -0.92594299       0.00000000
Si       0.89990521      -1.86362487      -1.33017224       0.00000000
Si      -0.42264309       2.18132874      -2.49036178       0.00000000
Si      -3.45559674      -0.63798156      -1.06589232       0.00000000
Si      -2.68113756      -2.50725906       0.14001645       0.00000000
Si       1.82859323       1.08642897      -3.01740791       0.00000000
Si       2.87072968      -2.42004240      -0.14610737       0.00000000
Si      -0.87084615      -3.49106103      -1.11264530       0.00000000
