10
Lattice="16.28999089631971 0.0 0.0 0.0 16.28999089631971 0.0 0.0 0.0 34.40246978574605" Properties=species:S:1:pos:R:3:initial_magmoms:R:1 pbc="T T T"
Si       1.35456180      -1.35542851      -1.36385227       0.00000000
Si      -1.36251313       1.36166108      -1.36247617       0.00000000
Si       1.36214479       1.36030901       1.38992936       0.00000000
Si      -1.36536388      -1.36487671       1.39133986       0.00000000
Si       2.70450433      -2.70173185      -0.00402509       0.00000000
Si       2.71391995       2.71685061      -0.00540119       0.00000000
Si       2.71095517       0.00313141      -2.72051443       0.00000000
Si      -0.00368484      -2.71192939      -2.72092726       0.00000000
Si      -2.72795722      -2.70533194      -0.00708691       0.00000000
Si      -2.72028463       2.71732302      -0.00639886       0.00000000
