10
Lattice="16.28999089631971 0.0 0.0 0.0 16.28999089631971 0.0 0.0 0.0 34.40246978574605" Properties=species:S:1:pos:R:3:initial_magmoms:R:1 pbc="T T T"
Si      -2.25993029       0.40865094       0.37942505       0.00000000
Si       0.76926756       1.73713302      -1.39680986       0.00000000
Si       0.97349529       0.48454605       2.13808029       0.00000000
Si       0.62687667      -1.97068275      -1.31568879       0.00000000
Si      -2.84114120      -1.44557460       1.69463221       0.00000000
Si       1.14729330       2.87850816       1.97583815       0.00000000
Si       3.12941163       1.64980233      -1.07332325       0.00000000
Si      -2.56344557       2.49683346       1.48102715       0.00000000
Si       2.90627121      -0.95099391       2.44508810       0.00000000
Si      -3.45700094       0.85638159      -1.62737534       0.00000000
