10
Lattice="16.290000149 0.0 0.0 0.0 16.290000149 0.0 0.0 0.0 29.1751946751" Properties=species:S:1:pos:R:3:initial_magmoms:R:1 pbc="T T T"
Si       1.12409146      -0.05045013      -1.01249596       0.00000000
H        0.65029681       0.92890468       1.62278268       0.00000000
H       -0.89728579       1.78496048       0.44378389       0.00000000
Si      -2.25642566       1.19887885       0.16807830       0.00000000
Si      -2.73672003      -1.00546768       0.77973625       0.00000000
Si       0.12263112       0.67448746       3.01052999       0.00000000
Si       1.35119035      -2.18369081      -1.92497934       0.00000000
Si       3.18371763       0.64325953      -0.10999048       0.00000000
Si       0.89638984       1.46456875      -2.84942456       0.00000000
Si      -1.67583377      -0.91738765       2.88697304       0.00000000
