10
Lattice="16.290000149 0.0 0.0 0.0 16.290000149 0.0 0.0 0.0 29.1751946751" Properties=species:S:1:pos:R:3:initial_magmoms:R:1 pbc="T T T"
Si       0.44173593      -0.24755913       2.28249247       0.00000000
Si      -1.71595604       1.63134578       0.10185060       0.00000000
Si      -0.05028723      -2.29364831      -0.67006670       0.00000000
Si       1.86549824       0.90341083      -1.27513106       0.00000000
H       -0.90727156       0.16493625      -2.54247234       0.00000000
Si       2.14795055      -2.67990050       0.14211237       0.00000000
Si      -0.32221620       3.37038474      -0.81212072       0.00000000
Si       2.07313058      -1.98343784       2.36915126       0.00000000
Si      -3.77256855       0.62167528      -0.62210268       0.00000000
Si       3.46582785       1.71491348       0.28124888       0.00000000
