10
Lattice="16.290000149 0.0 0.0 0.0 16.290000149 0.0 0.0 0.0 29.1751946751" Properties=species:S:1:pos:R:3:initial_magmoms:R:1 pbc="T T T"
Si       1.35527914       1.34076475      -1.31502230       0.00000000
Si       1.43294986      -1.31984839       1.28254156       0.00000000
Si      -1.33589404       1.44104599       1.28843495       0.00000000
Si      -1.30575754      -1.29510388      -1.47390749       0.00000000
Si      -0.05176962       2.70513371      -2.56714872       0.00000000
Si       0.05369184      -2.63795375       2.64604428       0.00000000
Si      -2.69868287       0.07858296       2.61739424       0.00000000
Si      -2.67237452      -2.64580553      -0.12437385       0.00000000
Si       2.77876452      -2.59876001      -0.17791034       0.00000000
Si       2.76897423       0.08408898       2.62007836       0.00000000
