10
Lattice="16.290000149 0.0 0.0 0.0 16.290000149 0.0 0.0 0.0 29.1751946751" Properties=species:S:1:pos:R:3:initial_magmoms:R:1 pbc="T T T"
Si      -0.92354527       1.03581595      -1.84139241       0.00000000
Si       1.08937747       1.75514978       1.05249515       0.00000000
Si       1.33250572      -1.54834822      -1.14760628       0.00000000
Si      -1.92920843      -1.04195728       0.89783744       0.00000000
H        0.53149383      -1.28884852       2.38098764       0.00000000
Si       0.70995079      -2.67840182       1.77396854       0.00000000
Si      -1.67744648      -1.01603989      -2.72507988       0.00000000
Si      -2.21166074       2.54135405      -0.51940599       0.00000000
Si      -0.46231020      -2.88973525      -1.76644134       0.00000000
Si      -1.19371492      -3.23013761       0.49387770       0.00000000
