10
Lattice="16.290000149 0.0 0.0 0.0 16.290000149 0.0 0.0 0.0 29.1751946751" Properties=species:S:1:pos:R:3:initial_magmoms:R:1 pbc="T T T"
Si      -1.39474981       1.28238139      -1.36111036       0.00000000
Si       1.43855362      -1.36974466      -1.23352723       0.00000000
Si      -1.37733580      -1.31872438       1.35591717       0.00000000
Si       0.87638572       1.89074774       1.06851233       0.00000000
Si      -2.43186896       0.15029154       2.83387418       0.00000000
Si       0.05346378      -2.71994132      -2.57202681       0.00000000
Si      -2.57720834       2.73479781       0.04991876       0.00000000
Si      -0.01265733       2.62049087      -2.70101035       0.00000000
Si       2.77795002      -0.03616380      -2.60694952       0.00000000
Si      -2.74673838      -0.05923044      -2.67317721       0.00000000
