10
Lattice="16.290000149 0.0 0.0 0.0 16.290000149 0.0 0.0 0.0 29.1751946751" Properties=species:S:1:pos:R:3:initial_magmoms:R:1 pbc="T T T"
Si      -1.27244449       1.11510753      -1.58179153       0.00000000
Si      -1.89499943      -0.01494608       1.33978329       0.00000000
Si       1.57646476       1.68691911       0.44025369       0.00000000
Si       0.42292098      -2.29300486       0.30126306       0.00000000
H        1.82640224       0.55985310      -2.41477251       0.00000000
H       -2.07345638       1.37460723       1.94680239       0.00000000
Si      -1.05784003      -1.26030030       3.05119146       0.00000000
Si       2.03590793      -2.47753798      -1.36691622       0.00000000
Si       0.84602116       2.32232686       2.61946539       0.00000000
Si      -2.60495021       2.66345575      -0.43418525       0.00000000
