10
Lattice="16.290000149 0.0 0.0 0.0 16.290000149 0.0 0.0 0.0 29.1751946751" Properties=species:S:1:pos:R:3:initial_magmoms:R:1 pbc="T T T"
Si       1.37775934       1.34024347       1.33158506       0.00000000
Si       1.37798740      -1.36591651      -1.31206685       0.00000000
Si      -1.35246097      -1.35267274       1.36169386       0.00000000
Si      -1.35099487       1.37648872      -1.34200060       0.00000000
Si      -0.05572809       2.66206295       2.61436002       0.00000000
Si      -0.00079821      -2.70076799      -2.65648900       0.00000000
Si       2.73341315      -0.01003464      -2.66982206       0.00000000
Si      -2.71647155       0.02205666      -2.68948615       0.00000000
Si       0.01039302      -2.67836924       2.74334356       0.00000000
Si       2.72605007       2.69806385      -0.02193975       0.00000000
