10
Lattice="16.290000149 0.0 0.0 0.0 16.290000149 0.0 0.0 0.0 29.1751946751" Properties=species:S:1:pos:R:3:initial_magmoms:R:1 pbc="T T T"
Si      -1.82223200      -1.29997459       0.64264201       0.00000000
Si       1.82417051      -1.45657036      -0.16527748       0.00000000
Si      -1.03690738       0.82595188      -1.95082857       0.00000000
Si       0.64474192       1.77399731       1.58721812       0.00000000
H        0.03049488      -1.13617864       3.12793097       0.00000000
Si      -2.57145797       2.08367021      -0.73807407       0.00000000
Si       3.44919576       0.22657761      -0.09802865       0.00000000
Si      -3.48151512       0.34862229       0.54274615       0.00000000
Si      -1.32864499      -1.72226027       2.85222538       0.00000000
Si       2.87510358       1.25840251       1.90791186       0.00000000
