10
Lattice="16.290000149 0.0 0.0 0.0 16.290000149 0.0 0.0 0.0 29.1751946751" Properties=species:S:1:pos:R:3:initial_magmoms:R:1 pbc="T T T"
Si       1.53810181      -1.27053856      -1.19781679       0.00000000
Si       1.39531996       1.32190093       1.36397244       0.00000000
Si      -1.21635802      -1.43510014       1.44158430       0.00000000
Si      -1.47154087       1.20808270      -1.45496696       0.00000000
H        0.35147304      -1.80685424      -2.24698597       0.00000000
Si      -2.66921426       2.68061726      -0.02503232       0.00000000
Si       2.85345498       2.50007519      -0.05365318       0.00000000
Si      -2.64756485      -0.06333552       2.72550001       0.00000000
Si      -0.13898628       2.53532675      -2.85540548       0.00000000
Si       0.06533919       2.76236049       2.67706918       0.00000000
