10
Lattice="16.290000149 0.0 0.0 0.0 16.290000149 0.0 0.0 0.0 29.1751946751" Properties=species:S:1:pos:R:3:initial_magmoms:R:1 pbc="T T T"
Si       1.14678832      -0.95268808      -0.26750736       0.00000000
Si      -1.88711344       1.59063706      -0.27004560       0.00000000
H       -1.15789158      -1.86180041       1.89595003       0.00000000
Si      -1.53210547       1.34757397       2.09046105       0.00000000
Si      -0.10500306      -2.67933035      -1.48580514       0.00000000
Si       2.43107238      -0.85348198       1.74476417       0.00000000
Si       2.62793703       0.20064393      -1.68597615       0.00000000
Si      -0.24486965       2.64606617      -1.70030117       0.00000000
Si      -1.08841473      -0.79736293       2.96778833       0.00000000
Si      -2.94184208      -0.11121183      -1.65224962       0.00000000
