10
Lattice="16.290000149 0.0 0.0 0.0 16.290000149 0.0 0.0 0.0 29.1751946751" Properties=species:S:1:pos:R:3:initial_magmoms:R:1 pbc="T T T"
Si       1.33255459       1.34032004      -1.32907891       0.00000000
Si      -1.32967126       1.41979895       1.28583835       0.00000000
Si       1.43519788      -1.34630824       1.26031006       0.00000000
Si      -1.36190917      -1.28233927      -1.40861049       0.00000000
Si       0.05611905      -2.69044502       2.59487099       0.00000000
Si      -2.67763619       0.04533018       2.62223732       0.00000000
Si       0.05675436       2.76932772       2.61027549       0.00000000
Si       2.78242977       0.04075432       2.59962655       0.00000000
Si      -0.04090419      -2.77041263      -2.61630892       0.00000000
Si      -2.71101440      -2.67829268      -0.09913731       0.00000000
