10
Lattice="16.290000149 0.0 0.0 0.0 16.290000149 0.0 0.0 0.0 29.1751946751" Properties=species:S:1:pos:R:3:initial_magmoms:R:1 pbc="T T T"
H       -0.64418806      -0.82539802       1.07869447       0.00000000
Si       1.23784453      -1.36723600      -1.41619312       0.00000000
Si      -1.58086306       1.09064809      -1.31530530       0.00000000
Si       1.27925371       1.46056141       1.30203059       0.00000000
H       -2.09090297      -1.73309312       0.53947852       0.00000000
Si      -3.17764146       1.01931418       0.47861907       0.00000000
H       -1.28234881      -2.48600063       2.18735187       0.00000000
Si       2.50178564      -0.03056004       2.66620434       0.00000000
Si      -0.28538451       2.68190417      -2.59163254       0.00000000
Si       2.55858887      -2.73768114      -0.07553458       0.00000000
