10
Lattice="16.290000149 0.0 0.0 0.0 16.290000149 0.0 0.0 0.0 29.1751946751" Properties=species:S:1:pos:R:3:initial_magmoms:R:1 pbc="T T T"
Si      -1.67874968       1.67733245       0.25099420       0.00000000
Si       0.35500797      -0.24306309       2.36050665       0.00000000
Si       1.64224378       1.05542911      -1.43025557       0.00000000
Si      -1.05472864      -1.70184890      -1.38220402       0.00000000
H        1.88711344      -1.59063706       0.27004560       0.00000000
H        0.54105606       2.45928503       1.37421002       0.00000000
H       -1.08502804       0.04994514       2.80364868       0.00000000
Si      -2.40793895      -0.28176813      -2.75232952       0.00000000
Si       0.35189658       2.46865178      -2.79215366       0.00000000
Si      -3.53911656       0.83940742      -1.00488123       0.00000000
