10
Lattice="16.290000149 0.0 0.0 0.0 16.290000149 0.0 0.0 0.0 29.1751946751" Properties=species:S:1:pos:R:3:initial_magmoms:R:1 pbc="T T T"
Si       1.37270944      -1.34707713       1.33750762       0.00000000
Si       1.36327753       1.34818485      -1.34952780       0.00000000
Si      -1.35076681      -1.36897089      -1.35116162       0.00000000
Si      -1.34820928       1.35066093       1.37278044       0.00000000
Si       0.01822851      -2.70124855       2.67300216       0.00000000
Si      -0.00045612       2.71387330      -2.68400121       0.00000000
Si      -2.73484667      -0.01012424      -2.67203938       0.00000000
Si      -2.71953407       2.69416240       0.01006544       0.00000000
Si       2.72259659       2.69137681       0.01423749       0.00000000
Si       2.72521928      -0.01470010      -2.69465016       0.00000000
