10
Lattice="16.290000149 0.0 0.0 0.0 16.290000149 0.0 0.0 0.0 29.1751946751" Properties=species:S:1:pos:R:3:initial_magmoms:R:1 pbc="T T T"
Si       1.50151447      -1.20495502      -1.33873298       0.00000000
Si      -1.35321031       1.42008076      -1.37012549       0.00000000
Si      -1.38007252      -1.83075167       0.77500987       0.00000000
Si       1.05472864       1.70184890       1.38220402       0.00000000
H        1.28067094      -3.02086650       0.27509291       0.00000000
H        2.94184208       0.11121183       1.65224962       0.00000000
Si      -2.48438792       2.54125631       0.37732279       0.00000000
Si       0.06286311      -2.52473825      -2.68788151       0.00000000
Si      -0.62402104       3.37918134       1.63319822       0.00000000
Si       2.83683902      -2.56811852       0.16644449       0.00000000
