10
Lattice="16.290000149 0.0 0.0 0.0 16.290000149 0.0 0.0 0.0 29.1751946751" Properties=species:S:1:pos:R:3:initial_magmoms:R:1 pbc="T T T"
Si       1.36145305       1.35366643       1.35259120       0.00000000
Si      -1.33008666      -1.35913987       1.38199980       0.00000000
Si       1.37832949      -1.35953083      -1.33494021       0.00000000
Si      -1.36984892       1.34879572      -1.36303592       0.00000000
Si      -2.66636417      -2.73510732       0.03784023       0.00000000
Si      -0.00685809       2.70791930       2.70276086       0.00000000
Si       2.71560818       2.69858513      -0.02240655       0.00000000
Si      -2.71865441       0.00153126       2.70372364       0.00000000
Si      -0.02503773       2.67835295      -2.74414879       0.00000000
Si       2.71029764      -0.00604359       2.71842794       0.00000000
