10
Lattice="16.290000149 0.0 0.0 0.0 16.290000149 0.0 0.0 0.0 29.1751946751" Properties=species:S:1:pos:R:3:initial_magmoms:R:1 pbc="T T T"
Si      -0.65785537       0.83279368      -1.07872365       0.00000000
Si       2.15490638       0.22243995       1.33847041       0.00000000
Si       2.26422857      -1.49835421      -0.47456372       0.00000000
Si       0.37439307       1.21477789       2.57812443       0.00000000
Si      -2.09422613       2.05465772       0.20720223       0.00000000
Si       0.41148540      -2.67511613      -1.49263213       0.00000000
Si      -2.09875475      -0.50116185      -2.28535135       0.00000000
Si      -1.39274614      -0.27484488       2.91107175       0.00000000
Si      -0.71636905      -2.32820429       2.14323898       0.00000000
Si       0.84372427       2.19002762      -2.24275556       0.00000000
