10
Lattice="16.290000149 0.0 0.0 0.0 16.290000149 0.0 0.0 0.0 29.1751946751" Properties=species:S:1:pos:R:3:initial_magmoms:R:1 pbc="T T T"
Si      -2.28616468       0.36219186      -0.01875965       0.00000000
Si       0.23427301      -0.79861726      -2.16818377       0.00000000
Si       1.02510365      -1.53490897       1.47929907       0.00000000
Si       1.23948005       2.02118177       0.10141298       0.00000000
Si      -2.59516970       1.23956801       2.11759398       0.00000000
Si       3.31290385       1.29940607       0.94915661       0.00000000
Si       2.54109993      -0.20012265       2.66521238       0.00000000
Si       1.89355613      -2.44721414      -2.06828790       0.00000000
Si       2.38714314      -2.86949982       0.14129547       0.00000000
Si       1.14433016       0.93643066      -3.44900399       0.00000000
