10
Lattice="16.290000149 0.0 0.0 0.0 16.290000149 0.0 0.0 0.0 29.1751946751" Properties=species:S:1:pos:R:3:initial_magmoms:R:1 pbc="T T T"
Si       1.30543174      -1.42741126      -1.30009540       0.00000000
Si       1.41371137       1.29420793       1.34440843       0.00000000
Si      -1.29929041      -1.48473577       1.27296713       0.00000000
Si      -1.28049175       1.49423284      -1.33752717       0.00000000
Si       2.57044799       0.05564664      -2.62467841       0.00000000
Si      -2.68337027      -0.11357388       2.62336728       0.00000000
Si       0.03194469       2.65189799       2.66674787       0.00000000
Si      -2.64103256       0.14727789      -2.67693118       0.00000000
Si      -0.07503174      -2.45239436      -2.93174733       0.00000000
Si      -2.72557766       2.68838759       0.01863128       0.00000000
