10
Lattice="16.290000149 0.0 0.0 0.0 16.290000149 0.0 0.0 0.0 29.1751946751" Properties=species:S:1:pos:R:3:initial_magmoms:R:1 pbc="T T T"
H       -0.90632674       0.82362241      -0.89632033       0.00000000
Si       1.03705399      -1.49410252      -1.46027684       0.00000000
Si      -1.38333052      -1.23066064       1.43617813       0.00000000
Si       1.89377768       1.30285792       0.63575667       0.00000000
Si       1.94816999       0.33262551      -2.62938524       0.00000000
Si       0.01441665       1.82508275      -2.93362418       0.00000000
H       -2.83845108       0.43565976      -2.17107211       0.00000000
Si       2.15607926       0.79161256       2.93067485       0.00000000
Si       0.01830996      -2.65281023       2.65745178       0.00000000
Si       2.54853794      -2.79810075      -0.17292138       0.00000000
