10
Lattice="16.290000149 0.0 0.0 0.0 16.290000149 0.0 0.0 0.0 29.1751946751" Properties=species:S:1:pos:R:3:initial_magmoms:R:1 pbc="T T T"
Si       1.30956940       1.34743551      -1.41870219       0.00000000
Si      -1.34513047      -1.34895048      -1.38608432       0.00000000
Si       1.41641551      -1.36344858       1.30795315       0.00000000
Si      -1.41731146       1.36137975       1.32843414       0.00000000
Si       0.06625143      -2.65410529       2.67699916       0.00000000
Si       2.59895549       2.78136277      -0.09753268       0.00000000
Si      -2.67901270      -2.71258639      -0.02474057       0.00000000
Si       2.73284300      -0.01669073      -2.71478104       0.00000000
Si       2.67201614      -0.04544096       2.77952080       0.00000000
Si      -0.11238471       2.82264163       2.62629267       0.00000000
