10
Lattice="16.290000149 0.0 0.0 0.0 16.290000149 0.0 0.0 0.0 29.1751946751" Properties=species:S:1:pos:R:3:initial_magmoms:R:1 pbc="T T T"
Si       1.43986498      -1.35780409       1.27761095       0.00000000
Si      -1.25850025      -1.36689391      -1.45490861       0.00000000
Si       1.37886706       1.32765130      -1.38841834       0.00000000
Si      -1.42954525       1.28340766       1.41336313       0.00000000
Si       0.09368379      -2.76573252       2.58880255       0.00000000
Si      -2.69146640       2.67424950      -0.01773852       0.00000000
Si      -0.02819799       2.69852486       2.67066815       0.00000000
Si      -2.59519250      -2.81437446      -0.19786617       0.00000000
Si      -2.72502380      -0.30784842       2.68969037       0.00000000
Si      -2.64614762      -0.02415807      -2.80081869       0.00000000
