10
Lattice="16.290000149 0.0 0.0 0.0 16.290000149 0.0 0.0 0.0 29.1751946751" Properties=species:S:1:pos:R:3:initial_magmoms:R:1 pbc="T T T"
Si       1.45813502       1.17817426      -1.41762563       0.00000000
Si      -1.39531996      -1.32190093      -1.36397244       0.00000000
Si      -1.32998077       1.44045955       1.31309674       0.00000000
Si       1.38825010      -1.36073629       1.35564293       0.00000000
Si       0.14278185      -2.59243949      -2.56178924       0.00000000
Si       0.05747112       2.34631388      -2.88108257       0.00000000
H       -0.84336589       3.09280314      -1.90631014       0.00000000
Si      -2.67046859       0.02112813       2.67253244       0.00000000
Si       2.67900293       2.66709656      -0.01920020       0.00000000
Si      -2.61167798      -2.75700108       0.07761185       0.00000000
