10
Lattice="16.290000149 0.0 0.0 0.0 16.290000149 0.0 0.0 0.0 29.1751946751" Properties=species:S:1:pos:R:3:initial_magmoms:R:1 pbc="T T T"
Si       1.29793834       1.28236396       1.50721681       0.00000000
Si      -1.33421617      -1.36538986       1.40695626       0.00000000
Si       1.48243888      -1.30218466      -1.33412330       0.00000000
Si      -1.35749458       1.38488019      -1.40049687       0.00000000
Si      -0.00104256      -2.55152993      -2.71049229       0.00000000
Si      -2.60687243       2.72888991       0.08587719       0.00000000
Si       2.70052364      -2.71548878       0.11276184       0.00000000
Si       2.35942733       2.37508740      -1.86878792       0.00000000
Si       3.09492084       0.18690706      -2.27274767       0.00000000
Si       2.28460736       3.07155006       0.35825097       0.00000000
