10
Lattice="16.290000149 0.0 0.0 0.0 16.290000149 0.0 0.0 0.0 29.1751946751" Properties=species:S:1:pos:R:3:initial_magmoms:R:1 pbc="T T T"
Si       1.34369695      -1.33077898      -1.38649278       0.00000000
Si      -1.36287028       1.33977106      -1.36356107       0.00000000
Si      -1.35078310      -1.39191535       1.32755888       0.00000000
Si       1.37142253       1.34785090       1.35431254       0.00000000
Si      -2.72940581      -0.04460202       2.64861170       0.00000000
Si      -2.69889464      -0.06416631      -2.70109787       0.00000000
Si       2.68912064      -2.71303436      -0.03363900       0.00000000
Si      -2.71779104       2.69262299       0.00183804       0.00000000
Si       0.02736720       2.71226873       2.70553250       0.00000000
Si      -0.00791694       2.71117730      -2.70920858       0.00000000
