10
Lattice="16.290000149 0.0 0.0 0.0 16.290000149 0.0 0.0 0.0 29.1751946751" Properties=species:S:1:pos:R:3:initial_magmoms:R:1 pbc="T T T"
H        0.52766568       0.25441722      -1.38774731       0.00000000
Si       1.69215635      -0.92836711       1.30766140       0.00000000
Si      -0.84362653       1.87668947       1.11312120       0.00000000
Si      -1.79846489      -1.59187510      -0.12355695       0.00000000
H        1.74169424       2.02160531      -1.01439234       0.00000000
H       -1.01991691       1.11047302      -2.56674610       0.00000000
H       -0.12263112      -0.67448746      -3.01052999       0.00000000
Si      -2.15878340       0.51021909       2.59481264       0.00000000
Si       2.65921220      -2.37830744      -0.21102418       0.00000000
Si       0.42714009      -2.41142501       2.63224441       0.00000000
