10
Lattice="16.290000149 0.0 0.0 0.0 16.290000149 0.0 0.0 0.0 29.1751946751" Properties=species:S:1:pos:R:3:initial_magmoms:R:1 pbc="T T T"
Si       1.34774124       1.35413884      -1.35635480       0.00000000
Si      -1.34405533       1.36441783       1.35121997       0.00000000
Si       1.34338744      -1.36078516       1.36458221       0.00000000
Si      -1.37142253      -1.34785090      -1.35431254       0.00000000
Si      -2.68074758      -0.08306271       2.60826240       0.00000000
Si       2.67150953      -2.70875009      -0.02914602       0.00000000
Si       2.66298008       2.71924085       0.03786940       0.00000000
Si      -0.02150280       2.71078634      -2.69613809       0.00000000
Si       2.69535483       0.01350441       2.71408084       0.00000000
Si      -0.02772558      -2.67862988      -2.74080531       0.00000000
