10
Lattice="16.290000149 0.0 0.0 0.0 16.290000149 0.0 0.0 0.0 29.1751946751" Properties=species:S:1:pos:R:3:initial_magmoms:R:1 pbc="T T T"
Si      -1.66764315      -0.78239242       1.44945285       0.00000000
Si       1.10737955       1.70595398       1.25068225       0.00000000
Si      -0.51993119       0.67235347      -2.23266095       0.00000000
Si       1.41290990      -1.94948948      -0.00128371       0.00000000
H       -2.85427192      -1.31870809       0.40028367       0.00000000
Si       2.46410361       0.29944278       2.56484971       0.00000000
Si       0.89372968      -2.86155030      -2.09151136       0.00000000
Si       3.46952242      -0.93981898       0.72266957       0.00000000
Si      -0.52861376      -2.28507977       2.83151741       0.00000000
H        2.86636888      -0.37468629      -2.37118477       0.00000000
