10
Lattice="16.290000149 0.0 0.0 0.0 16.290000149 0.0 0.0 0.0 29.1751946751" Properties=species:S:1:pos:R:3:initial_magmoms:R:1 pbc="T T T"
Si      -1.35904213       1.35777151       1.33919979       0.00000000
Si       1.34796493       1.37446876      -1.33639897       0.00000000
Si       1.38407986      -1.35884665       1.32087776       0.00000000
Si      -1.35663121      -1.37140624      -1.33733257       0.00000000
Si       2.67763619      -0.04533018      -2.62223732       0.00000000
Si       0.00864999      -2.71586882       2.65208355       0.00000000
Si      -2.72903115      -0.01154147      -2.64937025       0.00000000
Si       0.01531260       2.70428663       2.68210482       0.00000000
Si      -2.70223409       0.00163877       2.70430714       0.00000000
Si       2.73484667       0.01012424       2.67203938       0.00000000
