10
Lattice="16.290000149 0.0 0.0 0.0 16.290000149 0.0 0.0 0.0 29.1751946751" Properties=species:S:1:pos:R:3:initial_magmoms:R:1 pbc="T T T"
Si      -1.37886706      -1.36371736      -1.30436460       0.00000000
Si      -1.38495952       1.31445640       1.35807614       0.00000000
Si       1.32931288      -1.36726858       1.37514363       0.00000000
Si       1.32364396       1.38740302      -1.38296258       0.00000000
Si      -2.69636969       0.02787219      -2.64496480       0.00000000
Si      -0.01369989       2.67524156       2.68490564       0.00000000
Si      -0.05261670      -2.72295497      -2.67060979       0.00000000
Si       2.68921838      -0.00298107       2.70535745       0.00000000
Si       2.74844883       0.02684592      -2.65237530       0.00000000
Si       2.69431715      -2.71456562       0.02538242       0.00000000
