10
Lattice="16.290000149 0.0 0.0 0.0 16.290000149 0.0 0.0 0.0 29.1751946751" Properties=species:S:1:pos:R:3:initial_magmoms:R:1 pbc="T T T"
Si       1.35904213      -1.35777151      -1.33919979       0.00000000
Si       1.37435473       1.34651512       1.34290504       0.00000000
Si      -1.34319196      -1.35613274       1.36510736       0.00000000
Si      -1.33090930       1.36956547      -1.37181765       0.00000000
Si       0.00402363       2.70402599       2.67451927       0.00000000
Si       2.70700706       0.01669725      -2.67559875       0.00000000
Si       0.04957047      -2.70407486       2.69584634       0.00000000
Si       0.00241092      -2.72917775      -2.67653236       0.00000000
Si      -2.68933241       2.72526815      -0.01823450       0.00000000
Si      -2.70128927      -2.71811684       0.01543368       0.00000000
