10
Lattice="16.290000149 0.0 0.0 0.0 16.290000149 0.0 0.0 0.0 29.1751946751" Properties=species:S:1:pos:R:3:initial_magmoms:R:1 pbc="T T T"
Si       0.67637710      -2.05335941      -0.76783277       0.00000000
Si      -0.62398846      -0.51619752       2.18107920       0.00000000
Si      -1.81916948       0.88927111      -1.14851071       0.00000000
Si       1.76713922       1.48962277      -0.33294732       0.00000000
H        1.39274614       0.27484488      -2.91107175       0.00000000
Si       0.12991275       1.53565831       3.06476668       0.00000000
Si      -2.86246254      -1.25436259      -1.54468068       0.00000000
Si       2.12229380       2.14045715       1.89659188       0.00000000
Si      -0.70147999       2.32950260      -2.70386952       0.00000000
Si       0.78192001       3.34704117      -1.23422744       0.00000000
