10
Lattice="16.290000149 0.0 0.0 0.0 16.290000149 0.0 0.0 0.0 29.1751946751" Properties=species:S:1:pos:R:3:initial_magmoms:R:1 pbc="T T T"
Si       1.35198856       1.34161183       1.31206685       0.00000000
Si      -1.31033503       1.42679224      -1.29768348       0.00000000
Si       1.43734816      -1.33501438      -1.28049929       0.00000000
Si      -1.37222074      -1.25346664       1.43159763       0.00000000
Si      -2.66194892       0.04346172      -2.62293753       0.00000000
Si       0.06990039      -2.69131979      -2.61126745       0.00000000
Si      -0.01840770      -2.61136847       2.73625398       0.00000000
Si      -2.68105709      -2.67949325       0.10217153       0.00000000
Si      -2.60900642       2.78431941       0.11918067       0.00000000
Si       0.06452469       2.75879298      -2.65208355       0.00000000
