10
Lattice="16.290000149 0.0 0.0 0.0 16.290000149 0.0 0.0 0.0 29.1751946751" Properties=species:S:1:pos:R:3:initial_magmoms:R:1 pbc="T T T"
Si       1.29929041       1.48473577      -1.27296713       0.00000000
Si       1.37394748      -1.35094600       1.36120372       0.00000000
Si      -1.38407986       1.37116189       1.35040014       0.00000000
Si      -1.17489997      -1.46743579      -1.44856300       0.00000000
Si       2.60472215       0.05732451      -2.57306253       0.00000000
Si      -2.53162404      -0.06092460      -2.76273047       0.00000000
Si      -2.66126963      -2.66784590      -0.01414122       0.00000000
Si       0.01928736      -2.66672189       2.75960873       0.00000000
Si       2.71896392       0.01725111       2.72389829       0.00000000
Si      -0.02098152       2.73816984       2.71339522       0.00000000
