10
Lattice="16.290000149 0.0 0.0 0.0 16.290000149 0.0 0.0 0.0 29.1751946751" Properties=species:S:1:pos:R:3:initial_magmoms:R:1 pbc="T T T"
Si      -1.38707722      -1.27395946      -1.37930401       0.00000000
Si       1.20370069      -1.39611817       1.44152595       0.00000000
Si      -1.41765355       1.38303730       1.28281580       0.00000000
Si       1.87300793       0.80457940      -1.19358902       0.00000000
Si       2.51773355      -2.72048541       0.04203562       0.00000000
Si       2.63432108       0.00754227       2.68189768       0.00000000
Si       2.68530878       2.66325212      -0.01429876       0.00000000
Si       3.50440257      -0.93129931      -1.10693023       0.00000000
Si      -0.09591552       2.72345996       2.67612099       0.00000000
Si      -2.72234899      -2.68100171      -0.02748012       0.00000000
