10
Lattice="16.290000149 0.0 0.0 0.0 16.290000149 0.0 0.0 0.0 29.1751946751" Properties=species:S:1:pos:R:3:initial_magmoms:R:1 pbc="T T T"
H       -1.44003601       0.29300823       0.44314203       0.00000000
Si       0.44369073      -2.14493690       0.87732728       0.00000000
Si      -0.35500797       0.24306309      -2.36050665       0.00000000
Si       1.22342788       1.59448150       1.41330478       0.00000000
H        0.18604809       2.70234812      -0.98629663       0.00000000
H        1.53210547      -1.34757397      -2.09046105       0.00000000
H        0.37421388      -3.20937438      -0.19451102       0.00000000
Si      -0.78674185       2.96362344       1.49260296       0.00000000
Si       3.41852169       0.18179640       0.37851898       0.00000000
Si      -2.66559788       2.25582293       0.22021437       0.00000000
