10
Lattice="16.290000149 0.0 0.0 0.0 16.290000149 0.0 0.0 0.0 29.1751946751" Properties=species:S:1:pos:R:3:initial_magmoms:R:1 pbc="T T T"
H        1.35913987       0.58608163       0.27570559       0.00000000
Si      -0.49358700       0.42228567      -2.20958337       0.00000000
Si      -1.36203949       1.33459084       1.33800360       0.00000000
Si      -0.48029436      -2.20434653       0.61165796       0.00000000
H        2.25642566      -1.19887885      -0.16807830       0.00000000
H        2.90672247      -0.26997417       1.45470438       0.00000000
Si       0.58059190      -2.11626650       2.71889474       0.00000000
Si       1.32864499       1.72226027      -2.85222538       0.00000000
Si      -2.79420092      -2.02900097       1.20651100       0.00000000
Si       0.15395679       2.66937716       2.52391692       0.00000000
