10
Lattice="16.290000149 0.0 0.0 0.0 16.290000149 0.0 0.0 0.0 29.1751946751" Properties=species:S:1:pos:R:3:initial_magmoms:R:1 pbc="T T T"
Si      -1.31715956       1.43430682      -1.27641477       0.00000000
Si       1.31475549       1.38304056       1.36399870       0.00000000
Si      -1.39755072      -1.33503067       1.33453175       0.00000000
Si       1.27980529      -1.34576578      -1.45648407       0.00000000
Si      -2.64218818       0.09886662      -2.61439503       0.00000000
Si       2.64689794      -2.69286734      -0.08478312       0.00000000
Si      -0.02830668      -2.69167817       2.67431504       0.00000000
Si       2.66185216       0.02254536       2.71874887       0.00000000
Si       2.69128819       0.04556313      -2.71149591       0.00000000
Si       2.63818279       2.76762216       0.00294669       0.00000000
