10
Lattice="16.290000149 0.0 0.0 0.0 16.290000149 0.0 0.0 0.0 29.1751946751" Properties=species:S:1:pos:R:3:initial_magmoms:R:1 pbc="T T T"
Si       1.34413841       1.46285830      -1.23296502       0.00000000
Si       1.38634580      -1.33910317       1.37177097       0.00000000
Si      -1.36049031       1.45948627       1.28483181       0.00000000
Si      -1.22086791      -1.48892230      -1.39842543       0.00000000
Si      -2.67900293      -2.66709656       0.01920020       0.00000000
Si      -2.66119796       0.10529856       2.72029515       0.00000000
Si       2.78922432       0.26870355      -2.58912348       0.00000000
Si      -0.01274041       2.70355358      -2.69208274       0.00000000
Si       0.04153461      -2.66866040       2.75288384       0.00000000
Si       0.03088421       2.74501164       2.72044103       0.00000000
