10
Lattice="16.290000149 0.0 0.0 0.0 16.290000149 0.0 0.0 0.0 29.1751946751" Properties=species:S:1:pos:R:3:initial_magmoms:R:1 pbc="T T T"
Si      -1.46828124       1.21257874       1.33666154       0.00000000
Si       1.20814949       1.51218442      -1.30725295       0.00000000
Si      -0.22401194      -1.85140739      -1.43874555       0.00000000
Si       1.42992155      -1.18353367       1.45260377       0.00000000
H       -2.94987305      -1.25561692      -1.42739640       0.00000000
Si       2.08989462      -2.02675295      -2.03359859       0.00000000
Si      -2.62029377      -0.42606495       2.51924888       0.00000000
Si       2.57018898       0.17759358      -2.64525655       0.00000000
Si       3.15078088      -1.93867292       0.07363819       0.00000000
Si      -0.01150237       2.59827131       2.68904852       0.00000000
