10
Lattice="16.290000149 0.0 0.0 0.0 16.290000149 0.0 0.0 0.0 29.1751946751" Properties=species:S:1:pos:R:3:initial_magmoms:R:1 pbc="T T T"
Si      -0.35515458      -0.65083438      -2.22953920       0.00000000
Si      -1.99238105      -0.60479884       1.16817479       0.00000000
Si       0.78591106       2.03714597       1.00736112       0.00000000
Si       1.48336741      -1.87680350       0.36013860       0.00000000
H       -2.23575365       2.07875063      -0.27964424       0.00000000
Si       1.81152947       0.69859666       2.62112866       0.00000000
H        2.77513185       1.93937339      -0.05835039       0.00000000
Si      -2.12229380      -2.14045715      -1.89659188       0.00000000
H       -0.43153839       3.28243503      -1.36499066       0.00000000
Si      -1.06883578      -1.64061478       3.00956721       0.00000000
