10
Lattice="16.290000149 0.0 0.0 0.0 16.290000149 0.0 0.0 0.0 29.1751946751" Properties=species:S:1:pos:R:3:initial_magmoms:R:1 pbc="T T T"
Si       1.36225126       1.35234694      -1.34780647       0.00000000
Si       1.37169946      -1.34941474       1.35037389       0.00000000
Si      -1.35223291       1.36122499       1.35877634       0.00000000
Si      -1.37236735      -1.36047565      -1.35081151       0.00000000
Si      -0.03051117       2.70028907      -2.67854545       0.00000000
Si       2.66087378      -2.71816571      -0.06199729       0.00000000
Si      -0.00329058      -2.67362885       2.71116332       0.00000000
Si      -2.68611514      -0.00241092       2.72012010       0.00000000
Si       2.68037291      -0.01721853      -2.73076905       0.00000000
Si       2.72574056       2.69348474       0.03007963       0.00000000
