10
Lattice="16.290000149 0.0 0.0 0.0 16.290000149 0.0 0.0 0.0 29.1751946751" Properties=species:S:1:pos:R:3:initial_magmoms:R:1 pbc="T T T"
Si      -1.51599628      -1.33478632      -1.18591331       0.00000000
Si      -1.41799564       1.17729460       1.46576178       0.00000000
Si       1.38147346      -1.31707909       1.43165598       0.00000000
Si       0.77180392       1.49952872      -1.71605578       0.00000000
H        1.20518308      -2.08329554      -2.24821133       0.00000000
Si      -1.30161988       2.22130442      -2.56379941       0.00000000
Si      -0.15395679      -2.66937716      -2.52391692       0.00000000
Si      -2.54109993       0.20012265      -2.66521238       0.00000000
Si       0.02502144       2.61933103       2.74165139       0.00000000
H       -0.61610410       3.77620122       0.01683409       0.00000000
