10
Lattice="16.290000149 0.0 0.0 0.0 16.290000149 0.0 0.0 0.0 29.1751946751" Properties=species:S:1:pos:R:3:initial_magmoms:R:1 pbc="T T T"
Si      -1.37193404      -1.37171249      -1.32855084       0.00000000
Si       1.34714392       1.35510321      -1.37450177       0.00000000
Si       1.40902963      -1.33939313       1.32881342       0.00000000
Si      -1.39812836       1.33650003       1.34742719       0.00000000
Si      -0.01586157       2.70370345       2.67116412       0.00000000
Si       0.07514740      -2.70302905       2.69015718       0.00000000
Si      -2.70478185      -0.00504175      -2.69960994       0.00000000
Si      -0.00226594      -2.71143469      -2.70839167       0.00000000
Si      -2.70175191       2.71838074      -0.02628685       0.00000000
Si       2.70452447       2.72277904      -0.03827786       0.00000000
