10
Lattice="16.290000149 0.0 0.0 0.0 16.290000149 0.0 0.0 0.0 29.1751946751" Properties=species:S:1:pos:R:3:initial_magmoms:R:1 pbc="T T T"
Si       0.90083701      -0.74648926      -0.97477243       0.00000000
Si      -1.08339904       1.71033599       0.79052845       0.00000000
Si      -1.91322794      -0.28559628       1.88431496       0.00000000
Si      -1.34570062       2.22158135      -1.50438974       0.00000000
Si       2.30150091      -1.91462888       0.48868451       0.00000000
Si      -0.69094036      -1.87937732      -2.31306778       0.00000000
Si       2.05284953       0.89215444      -2.15735977       0.00000000
Si       0.85999798       2.56220525       1.85172335       0.00000000
Si      -0.48661488      -1.65234359       3.21940688       0.00000000
Si      -3.22116834      -1.73408681       0.51730538       0.00000000
