10
Lattice="16.290000149 0.0 0.0 0.0 16.290000149 0.0 0.0 0.0 29.1751946751" Properties=species:S:1:pos:R:3:initial_magmoms:R:1 pbc="T T T"
Si       1.37142416       1.36847404       1.32434961       0.00000000
Si       1.37927920      -1.34864585      -1.34045432       0.00000000
Si      -1.32571279       1.38292327      -1.36006005       0.00000000
Si      -1.35106003      -1.35186965       1.37286796       0.00000000
Si      -2.68356575      -2.70620885      -0.01000709       0.00000000
Si      -2.69448005       0.03463254      -2.69818035       0.00000000
Si       0.00588069       2.71989245       2.67320639       0.00000000
Si       2.70086573       0.00827532       2.69797613       0.00000000
Si       2.70270650       0.03593574      -2.70150633       0.00000000
Si      -2.69071706       2.73022031      -0.01029884       0.00000000
