10
Lattice="16.290000149 0.0 0.0 0.0 16.290000149 0.0 0.0 0.0 29.1751946751" Properties=species:S:1:pos:R:3:initial_magmoms:R:1 pbc="T T T"
Si       1.31907136      -1.33908688      -1.40493150       0.00000000
Si      -1.34180731       1.36094806      -1.37403497       0.00000000
Si       1.39205870       1.36930483       1.31752262       0.00000000
Si      -1.36029646      -1.34014573       1.38722216       0.00000000
Si      -0.01246185       2.68553684       2.63271122       0.00000000
Si       2.65092059      -2.69726564      -0.04227486       0.00000000
Si      -2.70122411      -2.68152950      -0.00805235       0.00000000
Si       0.05300619      -2.67501350       2.71702753       0.00000000
Si      -2.72557767       2.70101234      -0.03588549       0.00000000
Si       2.67002876       0.02568933      -2.76738392       0.00000000
