10
Lattice="16.28999089631971 0.0 0.0 0.0 16.28999089631971 0.0 0.0 0.0 34.450931932916035" Properties=species:S:1:pos:R:3:initial_magmoms:R:1 pbc="T T T"
Si      -1.32140245       1.36681669      -1.36368234       0.00000000
Si      -1.35132392      -1.35536353       1.36479855       0.00000000
Si       1.36228383       1.35965071       1.35873518       0.00000000
Si       1.34863281      -1.22870878      -1.53183743       0.00000000
Si       0.31488570       2.49770107      -2.63519563       0.00000000
Si       2.70282051      -2.68353610      -0.01039041       0.00000000
Si      -2.69265706      -2.70020077       0.00091640       0.00000000
Si       2.33487828       0.76029274      -2.92866644       0.00000000
Si      -2.70502685       2.70813529       0.00856795       0.00000000
Si      -2.70676541       0.00257316       2.72027122       0.00000000
