10
Lattice="16.28999089631971 0.0 0.0 0.0 16.28999089631971 0.0 0.0 0.0 34.450931932916035" Properties=species:S:1:pos:R:3:initial_magmoms:R:1 pbc="T T T"
Si       0.21914937      -1.19479005      -2.02171962       0.00000000
Si      -1.60144384      -1.04790312       1.37893377       0.00000000
Si      -0.62224542       1.93783301      -1.21119209       0.00000000
Si      -0.58586985      -3.18725253      -1.12854426       0.00000000
Si       1.44992403       2.14435763      -2.45142633       0.00000000
Si      -2.67091003      -2.40101568      -0.31739661       0.00000000
Si       1.94820255       0.77213853       2.96298851       0.00000000
Si       1.00571202      -3.44184894       0.56558127       0.00000000
Si      -0.18917577      -2.49818553       2.64603976       0.00000000
Si      -3.06399294       1.69696907      -1.25270549       0.00000000
