10
Lattice="16.28999089631971 0.0 0.0 0.0 16.28999089631971 0.0 0.0 0.0 34.450931932916035" Properties=species:S:1:pos:R:3:initial_magmoms:R:1 pbc="T T T"
Si      -1.42912170       1.21196948      -1.46044472       0.00000000
Si      -0.75173463       0.46927906       2.24213681       0.00000000
Si       1.39128003       2.01956252       0.42522809       0.00000000
Si       1.51079976      -1.50965687      -1.27819919       0.00000000
Si      -0.68072652       2.77934441       1.82424677       0.00000000
Si       0.44448894       2.24034089      -2.67146456       0.00000000
Si      -2.38835835      -0.61642730      -2.67732122       0.00000000
Si       2.44112166      -2.65749914       0.60285719       0.00000000
Si       3.53198151       0.79293041       1.15259102       0.00000000
Si       2.69084736      -1.21677896       2.41463272       0.00000000
