10
Lattice="16.28999089631971 0.0 0.0 0.0 16.28999089631971 0.0 0.0 0.0 34.450931932916035" Properties=species:S:1:pos:R:3:initial_magmoms:R:1 pbc="T T T"
Si       1.78497675      -0.81041514      -1.28326348       0.00000000
Si      -1.04834295      -1.86586053       0.99490902       0.00000000
Si      -1.65760524       0.87564289      -1.45575939       0.00000000
Si       1.13469624       1.34121271       1.64417165       0.00000000
Si      -3.19282371      -0.98266560       1.45031614       0.00000000
Si       3.07621989      -1.94390592       0.33420868       0.00000000
Si      -1.50946398      -3.28030494      -0.88852448       0.00000000
Si       1.28992365       3.44370926       0.66138936       0.00000000
Si      -3.73881564       0.27242093      -0.51810785       0.00000000
Si      -0.90587061       0.40636382      -3.69789620       0.00000000
