10
Lattice="16.28999089631971 0.0 0.0 0.0 16.28999089631971 0.0 0.0 0.0 34.450931932916035" Properties=species:S:1:pos:R:3:initial_magmoms:R:1 pbc="T T T"
Si       1.32131448       0.16075787      -1.89711053       0.00000000
Si      -0.70802856      -2.19280734      -0.39973439       0.00000000
Si       1.52536302      -0.07386212       1.79382658       0.00000000
Si      -1.73102427       1.60133632      -0.33644799       0.00000000
Si      -2.96179893      -1.73781135       0.09325872       0.00000000
Si      -2.16093366       0.90829619      -2.51367920       0.00000000
Si      -0.28165410      -0.14095737      -3.62534250       0.00000000
Si      -0.72930330       3.66611011       0.14900036       0.00000000
Si       3.14621802      -1.45100961      -1.55074067       0.00000000
Si       0.45577791       1.43017729       3.50721018       0.00000000
