10
Lattice="16.28999089631971 0.0 0.0 0.0 16.28999089631971 0.0 0.0 0.0 34.450931932916035" Properties=species:S:1:pos:R:3:initial_magmoms:R:1 pbc="T T T"
Si      -1.32131448      -0.16075787       1.89711053       0.00000000
Si      -1.60296858      -0.30171524      -1.72823197       0.00000000
Si       0.51676767       2.25851565      -0.56613248       0.00000000
Si       1.82490354      -1.61176748       0.34636986       0.00000000
Si      -2.02934304      -2.35356521       1.49737614       0.00000000
Si       2.69175960       1.83860832      -1.48779878       0.00000000
Si       3.46542057      -0.36130731      -0.83722702       0.00000000
Si      -3.48224814       0.74753833      -0.61656867       0.00000000
Si       0.20404854      -0.23461998       3.69093711       0.00000000
Si      -3.05233875       1.44057846       1.56066254       0.00000000
