10
Lattice="16.28999089631971 0.0 0.0 0.0 16.28999089631971 0.0 0.0 0.0 34.450931932916035" Properties=species:S:1:pos:R:3:initial_magmoms:R:1 pbc="T T T"
Si      -0.67986315      -0.92747115      -2.04559413       0.00000000
Si       2.19665763      -0.66947013       0.48944466       0.00000000
Si      -0.21563073       2.34299070      -0.31936032       0.00000000
Si      -1.76358798      -0.96060501       1.30569105       0.00000000
Si      -0.75087126      -3.23753650      -1.62770409       0.00000000
Si      -2.55793725       0.85278150       2.53879395       0.00000000
Si       2.04143022      -2.77196667       1.47222695       0.00000000
Si      -2.52293004       2.90753694      -0.30489092       0.00000000
Si      -3.01004991      -0.44536860      -2.41356474       0.00000000
Si      -3.54677935      -1.62657279      -0.17917940       0.00000000
