10
Lattice="16.28999089631971 0.0 0.0 0.0 16.28999089631971 0.0 0.0 0.0 34.450931932916035" Properties=species:S:1:pos:R:3:initial_magmoms:R:1 pbc="T T T"
Si      -2.07889722      -0.99030168       0.47325272       0.00000000
Si       0.19847736       0.58479471      -2.27259145       0.00000000
Si       1.55698191      -1.63869255       0.66297410       0.00000000
Si       0.43536654       2.04431355       1.21239787       0.00000000
Si      -3.07957563       1.14442137       0.33217607       0.00000000
Si       2.29540761      -2.22734799      -1.51125988       0.00000000
Si       2.81476539      -0.46353195       2.34717776       0.00000000
Si      -1.60063911      -2.40777603       2.37239585       0.00000000
Si       2.20869594      -0.36424440      -3.02692947       0.00000000
Si      -0.29566350       3.76176825      -0.42698509       0.00000000
