10
Lattice="16.28999089631971 0.0 0.0 0.0 16.28999089631971 0.0 0.0 0.0 34.450931932916035" Properties=species:S:1:pos:R:3:initial_magmoms:R:1 pbc="T T T"
Si      -1.39680234      -1.87261695      -0.35915117       0.00000000
Si      -0.47825811       1.41747435      -1.89914314       0.00000000
Si      -0.02611287       0.81298503       2.28172095       0.00000000
Si       2.07541116      -1.11793383      -0.68681416       0.00000000
Si       3.15762102       0.76908348      -1.70942175       0.00000000
Si      -2.09460078       0.09063756      -3.03185596       0.00000000
Si      -3.32362752      -0.96493815      -1.33590453       0.00000000
Si      -2.84685669       2.17717479       1.06901302       0.00000000
Si       1.60063911       2.40777603      -2.37239585       0.00000000
Si      -0.47278467      -3.64835564       0.91167552       0.00000000
