10
Lattice="16.28999089631971 0.0 0.0 0.0 16.28999089631971 0.0 0.0 0.0 34.450931932916035" Properties=species:S:1:pos:R:3:initial_magmoms:R:1 pbc="T T T"
Si       1.40353011      -1.26361530      -1.33149137       0.00000000
Si      -1.38183183       1.26273564      -1.37362833       0.00000000
Si       1.36019871       1.33822350       1.33709309       0.00000000
Si      -1.35285192      -1.37891592       1.33020290       0.00000000
Si      -0.43323255      -2.13791589      -2.55432409       0.00000000
Si      -2.39282181      -0.65260998      -2.50289847       0.00000000
Si       0.08944839       2.54637135      -2.65374643       0.00000000
Si       0.00614133       2.69615790       2.69184230       0.00000000
Si      -2.70982521      -0.01863576       2.69101547       0.00000000
Si       2.71865439      -0.01852173       2.69125663       0.00000000
