10
Lattice="16.28999089631971 0.0 0.0 0.0 16.28999089631971 0.0 0.0 0.0 34.450931932916035" Properties=species:S:1:pos:R:3:initial_magmoms:R:1 pbc="T T T"
Si      -1.35643572      -1.35711990      -1.35826320       0.00000000
Si       1.35721764      -1.35799956       1.35709187       0.00000000
Si      -1.35799956       1.35705474       1.35726412       0.00000000
Si       1.35953082       1.35767376      -1.35743638       0.00000000
Si       2.71358820      -0.00026064      -2.71218558       0.00000000
Si      -0.00083079       2.71508688       2.71377033       0.00000000
Si      -2.71515204      -0.00055386       2.71390813       0.00000000
Si       2.71492398       2.71417464       0.00013780       0.00000000
Si       0.00092853      -2.71463076       2.71449380       0.00000000
Si      -2.71507385       2.71453302      -0.00044786       0.00000000
