10
Lattice="16.28999089631971 0.0 0.0 0.0 16.28999089631971 0.0 0.0 0.0 34.450931932916035" Properties=species:S:1:pos:R:3:initial_magmoms:R:1 pbc="T T T"
Si       2.31220260      -0.10278990       0.35184756       0.00000000
Si      -0.61724439       1.14870564       1.96832065       0.00000000
Si      -0.52069356       1.29857364      -1.93748704       0.00000000
Si      -1.29852477      -2.00890609       0.22131291       0.00000000
Si       0.30677328      -0.62703305       3.23914733       0.00000000
Si      -2.54406957       2.05638444       0.99156728       0.00000000
Si      -1.31504283       3.11196015      -0.70438415       0.00000000
Si       2.18605284      -1.67628661       2.12748404       0.00000000
Si      -1.04319531      -2.83666634      -1.96480665       0.00000000
Si       3.28432464      -0.51278802      -1.77095115       0.00000000
