10
Lattice="16.28999089631971 0.0 0.0 0.0 16.28999089631971 0.0 0.0 0.0 34.450931932916035" Properties=species:S:1:pos:R:3:initial_magmoms:R:1 pbc="T T T"
Si      -0.01163106       2.14018020      -0.79485235       0.00000000
Si       1.40315544       0.01746288       1.90493920       0.00000000
Si       1.89897417      -0.89293635      -1.10263714       0.00000000
Si      -1.95553305      -1.19757564      -0.64795349       0.00000000
Si      -0.06812478      -1.26617283       3.18505731       0.00000000
Si       3.35934009      -0.79197093       0.76088371       0.00000000
Si      -1.20651885       3.08384361       1.28560615       0.00000000
Si      -1.38896685      -3.39644871      -0.27171465       0.00000000
Si      -1.78276131      -1.40411655      -2.96602019       0.00000000
Si      -1.60321293       2.39477661      -2.48897787       0.00000000
