10
Lattice="16.28999089631971 0.0 0.0 0.0 16.28999089631971 0.0 0.0 0.0 34.450931932916035" Properties=species:S:1:pos:R:3:initial_magmoms:R:1 pbc="T T T"
Si       1.34856765       1.33587303      -1.35912448       0.00000000
Si      -1.35669636       1.35603561       1.35488701       0.00000000
Si       1.35646830      -1.35775521       1.35485256       0.00000000
Si      -1.37632581      -1.32937803      -1.37398317       0.00000000
Si      -0.04396671       2.64199106      -2.70483375       0.00000000
Si      -0.04258206      -2.66152536      -2.74827640       0.00000000
Si      -0.00029322       2.71421115       2.71266790       0.00000000
Si       2.71459818      -0.00061902       2.71270235       0.00000000
Si      -2.71533123      -0.00053757       2.71280570       0.00000000
Si       0.00011403      -2.71596654       2.71328801       0.00000000
