10
Lattice="16.28999089631971 0.0 0.0 0.0 16.28999089631971 0.0 0.0 0.0 34.450931932916035" Properties=species:S:1:pos:R:3:initial_magmoms:R:1 pbc="T T T"
Si      -1.25007831       0.49096431       1.92136400       0.00000000
Si       0.27010449      -1.40087484       1.87110006       0.00000000
Si       1.79463672       1.52013393      -0.28515052       0.00000000
Si      -0.90132570      -0.90824895      -2.15221982       0.00000000
Si      -1.12427064      -3.12010515       1.02116064       0.00000000
Si       0.86431482       2.66797620      -2.16620691       0.00000000
Si       0.60471738      -2.82618468      -2.22766741       0.00000000
Si      -0.17599716       0.98401374      -3.54410715       0.00000000
Si       2.04436242       2.96085411       1.52662500       0.00000000
Si       3.92701401      -0.03828150      -0.40683128       0.00000000
