10
Lattice="16.28999089631971 0.0 0.0 0.0 16.28999089631971 0.0 0.0 0.0 34.450931932916035" Properties=species:S:1:pos:R:3:initial_magmoms:R:1 pbc="T T T"
Si       0.92440863      -1.15693209       1.84033536       0.00000000
Si      -2.33709372       0.22706631       0.28518497       0.00000000
Si       0.73332693       2.21476626       0.50112354       0.00000000
Si       0.84230703      -0.72860283      -2.12803525       0.00000000
Si      -2.75125068       1.88214678      -1.40504759       0.00000000
Si       0.30695247       0.16291629       3.72673164       0.00000000
Si      -1.14595263       3.26401983       1.61278683       0.00000000
Si       3.31560144      -1.17672444       1.48555947       0.00000000
Si       0.63180765      -3.20807115      -2.09826963       0.00000000
Si      -2.76848550       1.64822220       2.18401805       0.00000000
