10
Lattice="16.28999089631971 0.0 0.0 0.0 16.28999089631971 0.0 0.0 0.0 34.450931932916035" Properties=species:S:1:pos:R:3:initial_magmoms:R:1 pbc="T T T"
Si      -1.64463840      -1.18407123      -1.28216105       0.00000000
Si       2.00598318      -0.92411541      -1.00142025       0.00000000
Si       0.33446628      -0.94278375       2.24341149       0.00000000
Si      -0.02205666       2.30426027      -0.91057309       0.00000000
Si       1.38150603      -2.91540501       1.41104206       0.00000000
Si      -2.25544824       0.18531504      -3.10413405       0.00000000
Si      -1.54741968       2.37812238      -2.70439967       0.00000000
Si       3.21621615       2.20241193       0.66786614       0.00000000
Si       3.96006642       0.01140300       0.12323105       0.00000000
Si       2.24966529      -3.20849469      -0.74906703       0.00000000
