10
Lattice="16.28999089631971 0.0 0.0 0.0 16.28999089631971 0.0 0.0 0.0 34.450931932916035" Properties=species:S:1:pos:R:3:initial_magmoms:R:1 pbc="T T T"
Si      -0.99877248      -1.83682782      -1.13459453       0.00000000
Si      -1.33529130       1.33473744       1.51276194       0.00000000
Si       1.38618126      -1.34460918       1.51338205       0.00000000
Si       0.86550399       1.88921646      -1.31648251       0.00000000
Si       0.89119332      -3.46675472      -0.94951093       0.00000000
Si      -0.22537215       1.16051589      -3.54997212       0.00000000
Si       2.80316691      -2.64037279       0.13157507       0.00000000
Si      -2.64668517       2.81937546       0.22006579       0.00000000
Si       2.77505037       2.75222808       0.03488503       0.00000000
Si      -2.73276153      -2.79638375       0.18285187       0.00000000
