10
Lattice="16.28999089631971 0.0 0.0 0.0 16.28999089631971 0.0 0.0 0.0 34.450931932916035" Properties=species:S:1:pos:R:3:initial_magmoms:R:1 pbc="T T T"
Si       1.35713619      -1.35687718      -1.35722967       0.00000000
Si      -1.35733167      -1.35619300       1.35874551       0.00000000
Si      -1.35739683       1.35801585      -1.35729857       0.00000000
Si       1.35733167       1.35837423       1.35712632       0.00000000
Si       2.71474479      -2.71463683      -0.00003445       0.00000000
Si      -2.71508688      -2.71455052      -0.00017225       0.00000000
Si       0.00118917       2.71500543      -2.71470050       0.00000000
Si      -0.00004887      -2.71530855      -2.71487276       0.00000000
Si       2.71511946       2.71529865       0.00013780       0.00000000
Si      -2.71611315       0.00127062      -2.71435599       0.00000000
