10
Lattice="16.28999089631971 0.0 0.0 0.0 16.28999089631971 0.0 0.0 0.0 34.450931932916035" Properties=species:S:1:pos:R:3:initial_magmoms:R:1 pbc="T T T"
Si       1.26262161      -1.41120500       1.33890177       0.00000000
Si       1.37178090       1.33355316      -1.35364677       0.00000000
Si      -1.34333856      -1.38182624      -1.35433579       0.00000000
Si      -1.34465805       1.27308468       1.52500581       0.00000000
Si      -0.42650478      -2.24683313       2.83035235       0.00000000
Si      -2.69667918       2.68537881       0.02528700       0.00000000
Si      -2.20354830      -0.46444256       3.08473817       0.00000000
Si       0.01335780       2.69292108      -2.71352917       0.00000000
Si      -2.70130554      -0.02164615      -2.71190998       0.00000000
Si       0.10059075       2.37813312       2.99923091       0.00000000
