10
Lattice="16.28999089631971 0.0 0.0 0.0 16.28999089631971 0.0 0.0 0.0 34.450931932916035" Properties=species:S:1:pos:R:3:initial_magmoms:R:1 pbc="T T T"
Si       0.16216695       1.96269576       1.36918415       0.00000000
Si      -0.84113415      -2.00970937       1.26204169       0.00000000
Si      -2.14070148       1.22663211      -0.72736293       0.00000000
Si       1.41648066      -0.49344854      -2.14188454       0.00000000
Si      -0.28689948       3.49586169      -0.43590789       0.00000000
Si      -1.09085985      -3.45042955      -0.54973383       0.00000000
Si       3.67508916       0.37487688      -0.55824321       0.00000000
Si       2.00015136      -1.21515092       2.91958031       0.00000000
Si      -3.53198151      -0.79293041      -1.15259102       0.00000000
Si      -2.62611090      -1.19929423       2.54530518       0.00000000
