10
Lattice="16.28999089631971 0.0 0.0 0.0 16.28999089631971 0.0 0.0 0.0 34.450931932916035" Properties=species:S:1:pos:R:3:initial_magmoms:R:1 pbc="T T T"
Si       2.19152628      -0.83121354      -0.21015080       0.00000000
Si      -0.84005901      -0.47250774       2.17306265       0.00000000
Si      -1.25778348      -1.17516060      -1.68420365       0.00000000
Si      -0.07405434       2.39563998      -0.45774979       0.00000000
Si      -2.37939885       2.50784550      -1.13477988       0.00000000
Si      -2.81476539       0.46353195      -2.34717776       0.00000000
Si       1.87670574       2.76296319      -1.83186043       0.00000000
Si       0.30193515       0.90236826       3.69545018       0.00000000
Si       2.66510916      -1.05401187      -2.54137777       0.00000000
Si      -2.33999334      -3.06217791      -0.66159607       0.00000000
