10
Lattice="16.28999089631971 0.0 0.0 0.0 16.28999089631971 0.0 0.0 0.0 34.450931932916035" Properties=species:S:1:pos:R:3:initial_magmoms:R:1 pbc="T T T"
Si      -1.87820442      -0.90205875       1.13009455       0.00000000
Si      -0.00373041       2.30725044       0.55352343       0.00000000
Si       1.70676846      -1.25147925       1.09033815       0.00000000
Si       0.25400997      -0.34738425      -2.37298152       0.00000000
Si       0.06371019       1.43264034       2.86201277       0.00000000
Si       0.79809597      -3.34942762       0.57515863       0.00000000
Si      -3.52126269      -0.30258675      -0.48761876       0.00000000
Si      -2.13439725       0.65513493       2.93935516       0.00000000
Si       1.68278958      -0.33614415       3.28899786       0.00000000
Si      -1.39351176      -3.19305991       1.58026513       0.00000000
