10
Lattice="16.28999089631971 0.0 0.0 0.0 16.28999089631971 0.0 0.0 0.0 34.450931932916035" Properties=species:S:1:pos:R:3:initial_magmoms:R:1 pbc="T T T"
Si      -0.86550399      -1.88921646       1.31648251       0.00000000
Si       1.90954638       0.86301162       1.35136754       0.00000000
Si       1.10723130       0.04880484      -2.31083200       0.00000000
Si      -1.09087614      -0.72870057      -2.23348962       0.00000000
Si      -1.85202639       1.88291223       0.10934732       0.00000000
Si       0.53248752       2.17714221       2.83911809       0.00000000
Si      -2.20079529      -0.55447902       2.82924444       0.00000000
Si      -1.91984166       1.39650912      -2.78470484       0.00000000
Si       2.72631069      -1.71997965      -1.88384691       0.00000000
Si      -0.82166760       3.54208131       1.52655752       0.00000000
