10
Lattice="16.28999089631971 0.0 0.0 0.0 16.28999089631971 0.0 0.0 0.0 34.450931932916035" Properties=species:S:1:pos:R:3:initial_magmoms:R:1 pbc="T T T"
Si       1.26473931      -0.50420808      -1.87588874       0.00000000
Si      -0.83181627      -1.60606368       1.45786090       0.00000000
Si       1.13199210       2.09399805       0.25717635       0.00000000
Si      -1.50636888       1.16830251      -1.66890743       0.00000000
Si      -2.31259356      -1.14191271      -0.28966360       0.00000000
Si       2.62203840       0.53401878       1.06911637       0.00000000
Si      -0.56027826      -1.25520966      -3.33729809       0.00000000
Si      -1.78667091      -2.72292237      -1.92753072       0.00000000
Si      -1.99383084       3.20987934      -0.24160452       0.00000000
Si      -1.45609794      -0.75702888       3.46314742       0.00000000
