10
Lattice="16.28999089631971 0.0 0.0 0.0 16.28999089631971 0.0 0.0 0.0 34.450931932916035" Properties=species:S:1:pos:R:3:initial_magmoms:R:1 pbc="T T T"
Si       2.32701021       0.13452282       0.07110676       0.00000000
Si      -0.46869588      -0.73665009       2.20024445       0.00000000
Si      -0.77520852       2.24332848      -0.53075135       0.00000000
Si      -0.42262776      -1.61767845      -1.79816740       0.00000000
Si       0.24941619       2.49088761      -2.71728432       0.00000000
Si       1.52813232      -1.25035524      -3.17227804       0.00000000
Si      -2.64857481       0.05479956       2.70594996       0.00000000
Si       2.96914572       2.36191968       0.14441839       0.00000000
Si       3.26521647      -1.14847758      -1.61027191       0.00000000
Si      -3.16640133       2.26312083      -0.17597546       0.00000000
