10
Lattice="16.28999089631971 0.0 0.0 0.0 16.28999089631971 0.0 0.0 0.0 34.450931932916035" Properties=species:S:1:pos:R:3:initial_magmoms:R:1 pbc="T T T"
Si       1.80858096       0.89174718      -1.15683779       0.00000000
Si       1.48418190      -1.20340746       1.32885587       0.00000000
Si      -1.11636282      -1.53179757      -1.36221383       0.00000000
Si      -1.21177625       1.51088121       1.33073345       0.00000000
Si       0.13530963      -2.54969451       2.68239585       0.00000000
Si      -2.58373151       0.16808022       2.67729710       0.00000000
Si      -2.48336882       2.78901090      -0.11917618       0.00000000
Si      -2.62395152      -2.68697034      -0.05041208       0.00000000
Si       2.87806833      -2.46381363      -0.09343098       0.00000000
Si       1.49872887       0.67681692      -3.48433961       0.00000000
