10
Lattice="16.28999089631971 0.0 0.0 0.0 16.28999089631971 0.0 0.0 0.0 34.450931932916035" Properties=species:S:1:pos:R:3:initial_magmoms:R:1 pbc="T T T"
Si       1.35900954       1.34685720       1.37340095       0.00000000
Si      -1.35589815      -1.36946772       1.37364211       0.00000000
Si       1.38109878      -1.37841093      -1.37968825       0.00000000
Si      -1.41164253       1.35553977      -1.43886809       0.00000000
Si      -2.72210787       2.68356102       0.01851394       0.00000000
Si       2.72124450       2.69760771      -0.00305235       0.00000000
Si       0.00184077       2.70387665       2.73293884       0.00000000
Si      -2.72707632      -2.71257822       0.01115866       0.00000000
Si      -2.71420722      -0.01006722       2.73249097       0.00000000
Si       2.71715571      -0.00985545       2.73290439       0.00000000
