10
Lattice="16.28999089631971 0.0 0.0 0.0 16.28999089631971 0.0 0.0 0.0 34.450931932916035" Properties=species:S:1:pos:R:3:initial_magmoms:R:1 pbc="T T T"
Si      -1.91197359      -0.82638193      -1.08108601       0.00000000
Si      -1.41698565       1.29576362       1.38180698       0.00000000
Si       1.29995829      -1.44808230       1.37541978       0.00000000
Si       1.49936418       1.22288215      -1.59412961       0.00000000
Si       2.61125442       2.49203605       0.02350933       0.00000000
Si      -1.23984819      -1.08837888      -3.24184970       0.00000000
Si      -0.06504597       2.63362873       2.75555933       0.00000000
Si       2.65412970      -0.08476013       2.75242429       0.00000000
Si      -2.80316691       2.64037279      -0.13157507       0.00000000
Si      -2.77713549      -0.08255609       2.74708440       0.00000000
