10
Lattice="16.28999089631971 0.0 0.0 0.0 16.28999089631971 0.0 0.0 0.0 34.450931932916035" Properties=species:S:1:pos:R:3:initial_magmoms:R:1 pbc="T T T"
Si       1.35744570       1.35624794       1.35654065       0.00000000
Si       1.35817875      -1.35736536      -1.35691961       0.00000000
Si      -1.35760860       1.35775965      -1.35719522       0.00000000
Si      -1.35718506      -1.35752826       1.35809095       0.00000000
Si       0.00052128      -2.71440381      -2.71487276       0.00000000
Si      -2.71474479       2.71463683       0.00003445       0.00000000
Si       2.71494141       2.71463683       0.00044786       0.00000000
Si      -2.71479366      -0.00067171      -2.71483831       0.00000000
Si       2.71416583       0.00387591       2.71569958       0.00000000
Si      -2.71516833      -2.71471332       0.00010335       0.00000000
