10
Lattice="16.28999089631971 0.0 0.0 0.0 16.28999089631971 0.0 0.0 0.0 34.450931932916035" Properties=species:S:1:pos:R:3:initial_magmoms:R:1 pbc="T T T"
Si      -1.35713619       1.35687718       1.35722967       0.00000000
Si       1.35760860      -1.35775965       1.35719522       0.00000000
Si      -1.35718506      -1.35843137      -1.35764308       0.00000000
Si       1.35826020       1.35819667      -1.35822875       0.00000000
Si       2.71505430      -0.00151171       2.71373588       0.00000000
Si      -2.71453302       2.71489303      -0.00006890       0.00000000
Si       0.00019548       2.71525141       2.71435599       0.00000000
Si       2.71503801       2.71459981      -0.00020671       0.00000000
Si      -2.71510317      -2.71523905      -0.00024116       0.00000000
Si      -2.71446786       0.00068418       2.71597519       0.00000000
