10
Lattice="16.28999089631971 0.0 0.0 0.0 16.28999089631971 0.0 0.0 0.0 34.450931932916035" Properties=species:S:1:pos:R:3:initial_magmoms:R:1 pbc="T T T"
Si       1.35672013      -1.35237204       1.35915893       0.00000000
Si      -1.35744570      -1.35624794      -1.35654065       0.00000000
Si       1.35749571       1.35838889      -1.35609279       0.00000000
Si      -1.35643572       1.35739520       1.36050251       0.00000000
Si       0.00073305      -2.71361331      -2.71346027       0.00000000
Si      -2.71463076      -2.71377621       0.00155029       0.00000000
Si       2.71492139       0.00104908      -2.71349472       0.00000000
Si      -2.71505430       0.00151171      -2.71373588       0.00000000
Si       2.71542638      -2.71338525       0.00079237       0.00000000
Si      -0.00001629       2.71611152      -2.71394258       0.00000000
