10
Lattice="16.28999089631971 0.0 0.0 0.0 16.28999089631971 0.0 0.0 0.0 34.450931932916035" Properties=species:S:1:pos:R:3:initial_magmoms:R:1 pbc="T T T"
Si      -1.35670613      -1.35866745       1.35647175       0.00000000
Si       1.35695700      -1.35773892      -1.35764308       0.00000000
Si      -1.35782851       1.35716877      -1.35784979       0.00000000
Si       1.35847197       1.35830907       1.35709187       0.00000000
Si       2.71052568      -0.00166158       2.71463160       0.00000000
Si       2.71430496      -2.71464705      -0.00024116       0.00000000
Si       2.71464705      -0.00169416      -2.71432154       0.00000000
Si       2.71476108       2.71494027      -0.00031006       0.00000000
Si      -2.71452589      -0.00068418      -2.71518282       0.00000000
Si      -2.71539502       2.71489140      -0.00034451       0.00000000
