10
Lattice="16.28999089631971 0.0 0.0 0.0 16.28999089631971 0.0 0.0 0.0 34.450931932916035" Properties=species:S:1:pos:R:3:initial_magmoms:R:1 pbc="T T T"
Si       0.63961056      -2.21574041      -0.39311980       0.00000000
Si      -1.81117107       0.30491622      -1.51973481       0.00000000
Si       1.95367599       1.35726651       0.29872420       0.00000000
Si      -1.10394072      -0.32504089       2.11360031       0.00000000
Si      -3.17863512      -1.46768990      -0.44992942       0.00000000
Si       0.09879885       1.39960422       3.25175638       0.00000000
Si       2.27511027       0.91940760       2.60755804       0.00000000
Si      -1.60052508      -3.16631078      -0.66855516       0.00000000
Si      -2.88098424       2.35625076      -1.09877864       0.00000000
Si      -0.79532667      -2.70212723       2.70023110       0.00000000
