10
Lattice="16.28999089631971 0.0 0.0 0.0 16.28999089631971 0.0 0.0 0.0 34.450931932916035" Properties=species:S:1:pos:R:3:initial_magmoms:R:1 pbc="T T T"
Si       1.37195525       1.34280099      -1.34656366       0.00000000
Si      -1.35852084       1.35782037       1.35998575       0.00000000
Si       1.35967546      -1.35886293       1.36026136       0.00000000
Si      -1.36024758      -1.36567215      -1.37627071       0.00000000
Si       2.58373151      -0.16808022      -2.67729710       0.00000000
Si       0.10036269       2.62093068      -2.79647328       0.00000000
Si      -2.71378368       2.71303434       0.00561551       0.00000000
Si      -2.71652040      -2.71345788       0.00434082       0.00000000
Si       2.71618550       2.71420722       0.00065457       0.00000000
Si      -2.71350675      -0.00066789       2.71776664       0.00000000
