10
Lattice="16.28999089631971 0.0 0.0 0.0 16.28999089631971 0.0 0.0 0.0 34.450931932916035" Properties=species:S:1:pos:R:3:initial_magmoms:R:1 pbc="T T T"
Si       1.35779634       1.35589815      -1.35657510       0.00000000
Si      -1.35469269       1.35509994       1.36129489       0.00000000
Si      -1.35676152      -1.35910728      -1.35647175       0.00000000
Si       1.35975240      -1.35915615       1.36553235       0.00000000
Si      -2.71477737       2.71184517       0.00192925       0.00000000
Si      -0.00013032       2.71311579      -2.71404593       0.00000000
Si      -2.71451673      -0.00148239      -2.71390813       0.00000000
Si       2.71558277       2.71339272       0.00027561       0.00000000
Si       2.71536285      -0.00182448      -2.71408039       0.00000000
Si      -2.71454931      -2.71603170       0.00051676       0.00000000
