10
Lattice="16.28999089631971 0.0 0.0 0.0 16.28999089631971 0.0 0.0 0.0 34.450931932916035" Properties=species:S:1:pos:R:3:initial_magmoms:R:1 pbc="T T T"
Si       1.35469269      -1.35509994      -1.36129489       0.00000000
Si      -1.36008468       1.35674523      -1.35936563       0.00000000
Si       1.35407367       1.35721764       1.37042439       0.00000000
Si      -1.35068535      -1.37257911       1.37349052       0.00000000
Si      -2.51817336       0.08101017       2.81226560       0.00000000
Si       2.71068989       2.71332756       0.00265272       0.00000000
Si       2.71444509      -2.71425609       0.00423747       0.00000000
Si      -2.71593396      -2.71298547      -0.00124023       0.00000000
Si       2.71248903       0.00079821      -2.71786999       0.00000000
Si      -0.00206883      -2.71420722      -2.71776664       0.00000000
