10
Lattice="16.28999089631971 0.0 0.0 0.0 16.28999089631971 0.0 0.0 0.0 34.450931932916035" Properties=species:S:1:pos:R:3:initial_magmoms:R:1 pbc="T T T"
Si      -1.26473931       0.50420808       1.87588874       0.00000000
Si       0.74086920       1.83857085      -1.38623737       0.00000000
Si       1.63629792      -1.82272068       0.03076470       0.00000000
Si      -1.82501757      -0.75100158      -1.46140935       0.00000000
Si      -2.77110819       1.67251059       0.20698131       0.00000000
Si      -0.13274721       2.59820613       2.13306509       0.00000000
Si       1.35729909       1.03822686       2.94500511       0.00000000
Si       2.04722946       0.52520589      -2.90325056       0.00000000
Si      -0.65752956      -2.20459086      -2.90018442       0.00000000
Si       2.41807131       2.86133850      -0.08774657       0.00000000
