10
Lattice="16.28999089631971 0.0 0.0 0.0 16.28999089631971 0.0 0.0 0.0 34.450931932916035" Properties=species:S:1:pos:R:3:initial_magmoms:R:1 pbc="T T T"
Si       1.67720211       1.02276765       1.29849080       0.00000000
Si       1.30636026      -1.31336496      -1.51701318       0.00000000
Si      -0.74086920      -1.83857085       1.38623737       0.00000000
Si      -1.40221062       1.40097258      -1.49920204       0.00000000
Si      -2.56588677      -2.58957243      -0.07517198       0.00000000
Si      -0.87361641       0.75963528       3.51930247       0.00000000
Si       2.63375091      -2.65302198      -0.03855061       0.00000000
Si       3.50987828      -0.81855621       1.18817886       0.00000000
Si       2.72675754       2.73105108      -0.04912706       0.00000000
Si      -3.51197739      -0.16606026       1.59321869       0.00000000
