10
Lattice="16.28999089631971 0.0 0.0 0.0 16.28999089631971 0.0 0.0 0.0 34.450931932916035" Properties=species:S:1:pos:R:3:initial_magmoms:R:1 pbc="T T T"
Si       0.33987456       0.84760128       2.11435823       0.00000000
Si       1.36563715      -1.89358218      -0.13342853       0.00000000
Si      -2.15440137      -0.92237238      -0.16095484       0.00000000
Si      -0.27285750       1.86548193      -1.45600055       0.00000000
Si      -2.57583996      -0.41347278       2.14405495       0.00000000
Si       0.21141162       3.49213617       0.15427136       0.00000000
Si      -0.13250286      -3.43678275       0.82468687       0.00000000
Si       1.65129354      -2.07357039      -2.42538141       0.00000000
Si       1.74236767       2.65988007       1.84074877       0.00000000
Si       1.18242594      -0.98919396       3.40213478       0.00000000
