10
Lattice="16.28999089631971 0.0 0.0 0.0 16.28999089631971 0.0 0.0 0.0 34.450931932916035" Properties=species:S:1:pos:R:3:initial_magmoms:R:1 pbc="T T T"
Si       0.24886233      -1.88180451       1.25801093       0.00000000
Si       1.46592081       1.63841562       0.77524975       0.00000000
Si      -1.95644529       0.82292193       0.99997331       0.00000000
Si       0.61227594       0.14281443      -2.32909101       0.00000000
Si      -2.00088441       2.15497152      -0.90857494       0.00000000
Si       0.23925123       3.10554189      -0.63313958       0.00000000
Si       2.50942141      -2.17983006       0.92659278       0.00000000
Si       3.63387776       0.98104896       0.15506373       0.00000000
Si      -1.19568600       2.61915507       2.46021133       0.00000000
Si       1.07921250       2.48023395      -2.72310653       0.00000000
