10
Lattice="16.28999089631971 0.0 0.0 0.0 16.28999089631971 0.0 0.0 0.0 34.450931932916035" Properties=species:S:1:pos:R:3:initial_magmoms:R:1 pbc="T T T"
Si       0.92646117      -0.24084765       2.10185253       0.00000000
Si      -1.40792678       1.87867683      -0.11220675       0.00000000
Si      -1.41347353      -1.76875191      -0.75878220       0.00000000
Si       1.53240030       1.68963138      -0.82475577       0.00000000
Si       2.82074382      -1.36418976       1.21270793       0.00000000
Si      -1.69358317       2.05866504       2.17974613       0.00000000
Si       0.58863915       2.02699728       2.86573347       0.00000000
Si       0.25225065       3.59999226      -0.23536890       0.00000000
Si      -2.47761845       1.48028859      -2.19669600       0.00000000
Si       1.36792017       1.37502261      -3.10923280       0.00000000
