10
Lattice="16.28999089631971 0.0 0.0 0.0 16.28999089631971 0.0 0.0 0.0 34.450931932916035" Properties=species:S:1:pos:R:3:initial_magmoms:R:1 pbc="T T T"
Si      -2.30388560      -0.21980097      -0.09222520       0.00000000
Si       0.98174943       1.10858337      -1.81504836       0.00000000
Si       0.98311779      -2.04973812       0.65291443       0.00000000
Si       1.03772187       1.38409614       1.64313812       0.00000000
Si       3.23006265       0.32026140       1.50598888       0.00000000
Si       0.64392741       3.37642830      -1.05116742       0.00000000
Si      -0.43323092      -2.53653219       2.52439345       0.00000000
Si      -2.68542998      -2.21631966      -1.28329793       0.00000000
Si      -3.13643492       1.86489549      -0.77903936       0.00000000
Si      -3.08834684      -0.14304249       2.16245175       0.00000000
