10
Lattice="16.28999089631971 0.0 0.0 0.0 16.28999089631971 0.0 0.0 0.0 34.450931932916035" Properties=species:S:1:pos:R:3:initial_magmoms:R:1 pbc="T T T"
Si      -0.56656620       2.19887307      -0.37623884       0.00000000
Si       0.30985209       0.21493026       2.32750182       0.00000000
Si      -1.03772187      -1.38409614      -1.64313812       0.00000000
Si       2.19234078      -1.06383474      -0.13714924       0.00000000
Si      -0.39379446       1.99233216      -2.69430554       0.00000000
Si       2.26944135      -1.27037565       2.27607620       0.00000000
Si      -0.05597244      -0.27551277      -3.45818648       0.00000000
Si      -0.05460408      -3.43383426      -0.99022369       0.00000000
Si       1.38896685       3.39644871       0.27171465       0.00000000
Si       3.50542881       0.34119405      -1.50657455       0.00000000
