10
Lattice="16.28999089631971 0.0 0.0 0.0 16.28999089631971 0.0 0.0 0.0 34.450931932916035" Properties=species:S:1:pos:R:3:initial_magmoms:R:1 pbc="T T T"
Si      -1.35715248      -1.35760860       1.35664401       0.00000000
Si       1.35716877       1.35803214       1.35650620       0.00000000
Si      -1.35707429       1.35747828      -1.35771199       0.00000000
Si       1.35799956      -1.35705474      -1.35726412       0.00000000
Si      -0.00169416       2.71322982       2.71490721       0.00000000
Si      -2.71471084       2.71454931      -0.00020671       0.00000000
Si       0.00156384      -2.71417464      -2.71552733       0.00000000
Si       2.71498914       2.71485882      -0.00044786       0.00000000
Si      -2.71493890      -2.71510317      -0.00020671       0.00000000
Si       2.71521720      -2.71505430      -0.00017225       0.00000000
