10
Lattice="16.28999089631971 0.0 0.0 0.0 16.28999089631971 0.0 0.0 0.0 34.450931932916035" Properties=species:S:1:pos:R:3:initial_magmoms:R:1 pbc="T T T"
Si      -1.93237356      -0.90803718       1.14353042       0.00000000
Si       1.28128995      -1.40796099      -1.54550412       0.00000000
Si      -1.39668179       1.31509170      -1.55480588       0.00000000
Si       2.01996000       0.91606815       1.23048462       0.00000000
Si      -2.71549429       2.64157011      -0.09377549       0.00000000
Si       3.52600308      -1.00186758       1.15503704       0.00000000
Si       2.68929981      -2.76310980      -0.13838947       0.00000000
Si      -2.80850093      -2.74250295      -0.08319905       0.00000000
Si       2.74528854       2.80833084      -0.16140271       0.00000000
Si       2.64999204      -0.04165353      -2.93029456       0.00000000
