10
Lattice="16.28999089631971 0.0 0.0 0.0 16.28999089631971 0.0 0.0 0.0 34.450931932916035" Properties=species:S:1:pos:R:3:initial_magmoms:R:1 pbc="T T T"
Si      -1.35737402      -1.35731818       1.35722967       0.00000000
Si      -1.35787901       1.35711615      -1.35705742       0.00000000
Si       1.35710361      -1.35757882      -1.35743638       0.00000000
Si       1.35715248       1.35959548       1.35729857       0.00000000
Si      -2.71347689      -0.00031002      -2.71356362       0.00000000
Si      -0.00123804      -2.71407970      -2.71470050       0.00000000
Si      -0.00223173       2.71401613      -2.71497611       0.00000000
Si       2.71438641       2.71522159       0.00006890       0.00000000
Si      -2.71530470       2.71445596       0.00034451       0.00000000
Si       2.71461447      -2.71526887      -0.00027561       0.00000000
