10
Lattice="16.28999089631971 0.0 0.0 0.0 16.28999089631971 0.0 0.0 0.0 34.450931932916035" Properties=species:S:1:pos:R:3:initial_magmoms:R:1 pbc="T T T"
Si       1.02451068       0.45014157       2.06685037       0.00000000
Si      -0.31327299       1.77562629      -1.53172374       0.00000000
Si       1.28014965      -1.91036088      -0.58938687       0.00000000
Si      -1.66017743      -1.72131543       0.12316215       0.00000000
Si      -1.94583382      -1.54132722       2.41511503       0.00000000
Si       0.33638850      -1.57299498       3.10110237       0.00000000
Si      -2.64055103       2.08775898      -1.11290353       0.00000000
Si       3.30897141       0.42665139       1.31426934       0.00000000
Si      -0.25225065      -3.59999226       0.23536890       0.00000000
Si       1.11566952      -2.22496965      -2.87386390       0.00000000
