10
Lattice="16.28999089631971 0.0 0.0 0.0 16.28999089631971 0.0 0.0 0.0 34.450931932916035" Properties=species:S:1:pos:R:3:initial_magmoms:R:1 pbc="T T T"
Si      -1.34863281       1.22870878       1.53183743       0.00000000
Si      -1.15113285      -1.28132253      -1.71377776       0.00000000
Si       1.35418770      -1.45482732       1.52144702       0.00000000
Si       0.98624547       1.98900153      -1.39682901       0.00000000
Si      -2.52677285      -2.62803312       0.09371348       0.00000000
Si       2.68654680       2.51654177       0.19059644       0.00000000
Si      -2.67003526       2.59552547       0.16815509       0.00000000
Si       2.68793145      -2.78697465       0.14715379       0.00000000
Si       0.01365102       2.58835950       2.89057261       0.00000000
Si      -2.56340092       0.16895988      -2.98088375       0.00000000
