10
Lattice="16.28999089631971 0.0 0.0 0.0 16.28999089631971 0.0 0.0 0.0 34.450931932916035" Properties=species:S:1:pos:R:3:initial_magmoms:R:1 pbc="T T T"
Si      -1.34133315      -1.34483724      -1.36388215       0.00000000
Si       1.35679736      -1.35583299       1.35433579       0.00000000
Si      -1.35544149       1.35793669       1.35547267       0.00000000
Si       1.35132392       1.35536353      -1.36479855       0.00000000
Si       0.17318388      -2.50137837      -2.80292250       0.00000000
Si       0.00058644      -2.71440270       2.71149656       0.00000000
Si      -2.71403196       0.00070047       2.71201333       0.00000000
Si       2.71513901       0.00066789       2.71159992       0.00000000
Si       0.00015638       2.71536285       2.71197888       0.00000000
Si      -2.71342923       2.71444735      -0.00489204       0.00000000
