10
Lattice="16.28999089631971 0.0 0.0 0.0 16.28999089631971 0.0 0.0 0.0 34.450931932916035" Properties=species:S:1:pos:R:3:initial_magmoms:R:1 pbc="T T T"
Si      -1.35821988      -1.35646830       1.35702297       0.00000000
Si      -1.35698184       1.35803214      -1.35698852       0.00000000
Si       1.35763656      -1.35707103      -1.35750528       0.00000000
Si       1.35771149       1.35826020       1.35726412       0.00000000
Si      -2.71178856      -0.00078192       2.71600964       0.00000000
Si       2.71301668      -0.00131949       2.71511391       0.00000000
Si       2.71384747       0.00149868      -2.71466605       0.00000000
Si       0.00160862       2.71526836      -2.71352917       0.00000000
Si       2.71471084      -2.71454931       0.00020671       0.00000000
Si      -2.71463931       0.00099369      -2.71494166       0.00000000
