10
Lattice="16.28999089631971 0.0 0.0 0.0 16.28999089631971 0.0 0.0 0.0 34.450931932916035" Properties=species:S:1:pos:R:3:initial_magmoms:R:1 pbc="T T T"
Si      -1.33245032      -1.35397593       1.38003620       0.00000000
Si       1.35886293      -1.35519768      -1.35840101       0.00000000
Si      -1.35530519       1.35957969      -1.35784979       0.00000000
Si       1.35109260       1.35736425       1.36887409       0.00000000
Si       2.71422351      -2.71072116       0.00454753       0.00000000
Si      -2.71301668       0.00131949      -2.71511391       0.00000000
Si       0.00169416      -2.71322982      -2.71490721       0.00000000
Si      -2.71504389      -2.71580364       0.00540880       0.00000000
Si       2.71557558       2.71607579       0.00313504       0.00000000
Si       0.00206883       2.71689787      -2.71507946       0.00000000
