10
Lattice="16.28999089631971 0.0 0.0 0.0 16.28999089631971 0.0 0.0 0.0 34.450931932916035" Properties=species:S:1:pos:R:3:initial_magmoms:R:1 pbc="T T T"
Si      -1.35559788      -1.35742617      -1.35650620       0.00000000
Si       1.35564728       1.35689998      -1.35791869       0.00000000
Si       1.35787901      -1.35711615       1.35705742       0.00000000
Si      -1.35742568       1.35733981       1.35740193       0.00000000
Si       0.00280025       2.71315651      -2.71297795       0.00000000
Si      -0.00015638      -2.71536285      -2.71197888       0.00000000
Si       0.00125433       2.71408505       2.71383923       0.00000000
Si      -2.71492139      -0.00104908       2.71349472       0.00000000
Si       0.00050499      -2.71443432       2.71428709       0.00000000
Si      -2.71418834      -2.71466238       0.00003445       0.00000000
