10
Lattice="16.28999089631971 0.0 0.0 0.0 16.28999089631971 0.0 0.0 0.0 34.450931932916035" Properties=species:S:1:pos:R:3:initial_magmoms:R:1 pbc="T T T"
Si      -1.80901820       1.60918877      -0.32204749       0.00000000
Si       1.71257747       0.93243960      -1.48256223       0.00000000
Si      -0.88935923      -1.81151316      -1.39371323       0.00000000
Si       0.29589970      -0.27894996       2.65971678       0.00000000
Si       0.39696938       2.29591490      -2.86869625       0.00000000
Si      -2.31426884      -0.44079111      -2.85674177       0.00000000
Si      -3.34094609       0.97974969       1.44418387       0.00000000
Si      -1.99871525      -0.24671205       3.23377298       0.00000000
Si       2.67181412       2.76083639      -0.26568574       0.00000000
Si      -0.94287890       3.61275452      -1.30913615       0.00000000
