10
Lattice="16.28999089631971 0.0 0.0 0.0 16.28999089631971 0.0 0.0 0.0 34.450931932916035" Properties=species:S:1:pos:R:3:initial_magmoms:R:1 pbc="T T T"
Si      -1.25803272      -1.90573452      -0.23102808       0.00000000
Si      -0.25532946       0.82776024       2.18611956       0.00000000
Si       2.14448076      -0.88319493      -0.45540712       0.00000000
Si      -0.54599193       1.25508653      -1.96842400       0.00000000
Si      -0.69416577      -2.44043748      -2.48136421       0.00000000
Si       1.04319531       2.83666634       1.96480665       0.00000000
Si       3.19282371       0.98266560      -1.45031614       0.00000000
Si      -3.42598967      -1.24836786       0.38915794       0.00000000
Si       1.68335973      -2.29763934      -2.33884063       0.00000000
Si       1.53521847       1.85830848      -2.90607554       0.00000000
