10
Lattice="10.86 0.0 0.0 0.0 10.86 0.0 0.0 0.0 10.86" Properties=species:S:1:pos:R:3:initial_magmoms:R:1 pbc="T T T"
Si      -1.22737548       1.34416392      -1.39697610       0.00000000
Si      -1.26355014      -1.48864536       1.26666696       0.00000000
Si       1.48762452       1.34416392       1.31802390       0.00000000
Si       1.48762452      -1.37083608      -1.39697610       0.00000000
Si      -2.39023170       0.02268654       2.78103966       0.00000000
Si      -2.58487548       2.70166392      -0.03947610       0.00000000
Si      -2.58487548      -0.01333608      -2.75447610       0.00000000
Si       0.13012452       2.70166392       2.67552390       0.00000000
Si       0.13012452       2.70166392      -2.75447610       0.00000000
Si       2.62805484      -2.84867574       0.08907372       0.00000000
