10
Lattice="10.86 0.0 0.0 0.0 10.86 0.0 0.0 0.0 10.86" Properties=species:S:1:pos:R:3:initial_magmoms:R:1 pbc="T T T"
Si      -1.28868018       1.41870696      -1.27511604       0.00000000
Si      -1.28868018      -1.29629304       1.43988396       0.00000000
Si       1.42631982       1.41870696       1.43988396       0.00000000
Si      -2.45153640       0.09722958      -2.52710028       0.00000000
Si       2.64797208      -2.72742384       0.01438950       0.00000000
Si       0.06881982       2.77620696      -2.63261604       0.00000000
Si      -2.64618018       2.77620696       0.08238396       0.00000000
Si      -2.64618018       0.06120696       2.79738396       0.00000000
Si       0.06881982      -2.65379304       2.79738396       0.00000000
Si       2.87967018       0.03895482      -2.59264038       0.00000000
