10
Lattice="16.28999089631971 0.0 0.0 0.0 16.28999089631971 0.0 0.0 0.0 34.450931932916035" Properties=species:S:1:pos:R:3:initial_magmoms:R:1 pbc="T T T"
Si       0.21797649      -1.19630502      -2.02130621       0.00000000
Si      -1.60317383      -1.05036291       1.38117308       0.00000000
Si      -0.62320653       1.93662755      -1.20888388       0.00000000
Si      -0.58741740      -3.18839283      -1.12919883       0.00000000
Si       1.44937017       2.14324991      -2.45039280       0.00000000
Si      -2.67078623      -2.40187905      -0.31718991       0.00000000
Si       1.94613372       0.77147552       2.96405649       0.00000000
Si       1.00550025      -3.44149056       0.56823399       0.00000000
Si      -0.18959931      -2.49960276       2.64796901       0.00000000
Si      -3.06448327       1.69615457      -1.25015612       0.00000000
