10
Lattice="16.28999089631971 0.0 0.0 0.0 16.28999089631971 0.0 0.0 0.0 34.450931932916035" Properties=species:S:1:pos:R:3:initial_magmoms:R:1 pbc="T T T"
Si      -1.41357452       1.44923985      -1.26679593       0.00000000
Si       1.15232202       1.28089899       1.71181751       0.00000000
Si       1.19509956      -0.94188780      -2.07973502       0.00000000
Si      -1.37585177      -1.34726445       1.80511757       0.00000000
Si       1.20679578      -3.08428344      -1.28698418       0.00000000
Si       0.18959931       2.49960276      -2.64796901       0.00000000
Si      -2.74097332       2.57743363       0.33479434       0.00000000
Si      -0.39781809      -0.68879007      -3.77716784       0.00000000
Si      -2.48118691       0.09772371      -2.96515892       0.00000000
Si       2.13573303       3.27107828       0.31608748       0.00000000
