10
Lattice="16.28999089631971 0.0 0.0 0.0 16.28999089631971 0.0 0.0 0.0 34.450931932916035" Properties=species:S:1:pos:R:3:initial_magmoms:R:1 pbc="T T T"
Si       1.60317383       1.05036291      -1.38117308       0.00000000
Si      -1.32739879       1.12819378       1.60159027       0.00000000
Si       1.41357452      -1.44923985       1.26679593       0.00000000
Si      -1.06761239      -1.35151614      -1.69836299       0.00000000
Si       1.01575643      -2.13802992      -2.51037191       0.00000000
Si      -1.98416828       2.89047221      -0.07279486       0.00000000
Si       2.60867408      -2.39112765      -0.81293910       0.00000000
Si       1.82115032      -0.14594211      -3.40247929       0.00000000
Si       2.56589654      -0.16834086       2.97861343       0.00000000
Si      -0.10436514       2.42792580       3.14878046       0.00000000
