10
Lattice="16.28999089631971 0.0 0.0 0.0 16.28999089631971 0.0 0.0 0.0 34.450931932916035" Properties=species:S:1:pos:R:3:initial_magmoms:R:1 pbc="T T T"
Si       0.73362015       0.88609455       2.05107183       0.00000000
Si       0.95959503       1.79962146      -1.27130900       0.00000000
Si      -1.87096256      -0.94099185      -1.35402573       0.00000000
Si       1.75249449      -1.79809020      -0.30785370       0.00000000
Si       2.19514266       0.46941264      -2.90245819       0.00000000
Si      -0.52786931      -2.25733136      -2.90538652       0.00000000
Si       2.65903299      -0.20380419       2.94748558       0.00000000
Si       3.62019186      -0.76458744      -1.51539399       0.00000000
Si       0.78675813      -3.62016647      -1.51997597       0.00000000
Si      -0.55120799       2.40699411       3.18275113       0.00000000
