10
Lattice="16.28999089631971 0.0 0.0 0.0 16.28999089631971 0.0 0.0 0.0 34.450931932916035" Properties=species:S:1:pos:R:3:initial_magmoms:R:1 pbc="T T T"
Si       1.06903125      -1.50464214      -1.70980071       0.00000000
Si       1.74649977       0.28457001       1.84115396       0.00000000
Si      -1.68951735      -1.20107147       1.57148014       0.00000000
Si      -1.60220295       2.00107989      -1.07641997       0.00000000
Si       0.01207089      -0.67300995       3.15927766       0.00000000
Si      -0.45470277      -1.43108139      -3.50655562       0.00000000
Si       3.26049237      -0.56527440      -1.93369744       0.00000000
Si       1.09250514      -3.80901644      -0.80387849       0.00000000
Si       2.77568568       1.72654452      -2.38280004       0.00000000
Si       2.51944398       3.28307031      -0.57405620       0.00000000
