10
Lattice="16.28999089631971 0.0 0.0 0.0 16.28999089631971 0.0 0.0 0.0 34.450931932916035" Properties=species:S:1:pos:R:3:initial_magmoms:R:1 pbc="T T T"
Si       1.35736425      -1.35741312       1.35709187       0.00000000
Si      -1.35742941       1.35736425       1.35757418       0.00000000
Si      -1.35754344      -1.35938421      -1.35636840       0.00000000
Si       1.35738054       1.35842310      -1.35753973       0.00000000
Si      -0.00112401       2.71511946      -2.71146211       0.00000000
Si       2.71355562      -0.00050499       2.71373588       0.00000000
Si      -2.71352304       0.00076563       2.71463160       0.00000000
Si       0.00138465      -2.71428867       2.71470050       0.00000000
Si       0.00133578      -2.71622718      -2.71325356       0.00000000
Si       2.71516833       2.71484253       0.00020671       0.00000000
