10
Lattice="16.28999089631971 0.0 0.0 0.0 16.28999089631971 0.0 0.0 0.0 34.450931932916035" Properties=species:S:1:pos:R:3:initial_magmoms:R:1 pbc="T T T"
Si      -1.55787786       1.63934415      -0.66145826       0.00000000
Si       0.73767636      -0.58797126      -2.17512971       0.00000000
Si      -1.08217728      -1.88647974       1.02246978       0.00000000
Si       1.25784864       1.17584478       1.68427255       0.00000000
Si      -3.15734409      -0.76909977       1.70921504       0.00000000
Si      -3.63579768       0.64927053      -0.18961804       0.00000000
Si       3.44955411       0.34453350       1.47353608       0.00000000
Si       2.79402822      -1.61114616      -1.97242031       0.00000000
Si      -1.12137102       3.68367399       0.54911371       0.00000000
Si      -1.35575154       2.22570270      -2.93532439       0.00000000
