10
Lattice="16.28999089631971 0.0 0.0 0.0 16.28999089631971 0.0 0.0 0.0 34.450931932916035" Properties=species:S:1:pos:R:3:initial_magmoms:R:1 pbc="T T T"
Si       2.31085053      -0.10308312       0.35091739       0.00000000
Si      -0.61796115       1.14862419       1.96687371       0.00000000
Si      -0.51991164       1.29541338      -1.93473097       0.00000000
Si      -1.30030038      -2.00773696       0.21852238       0.00000000
Si       0.30571443      -0.62743541       3.23838941       0.00000000
Si      -2.54519358       2.05558623       0.98984473       0.00000000
Si      -1.31704650       3.11187870      -0.70610670       0.00000000
Si       2.18492883      -1.67657820       2.12641606       0.00000000
Si      -1.04226678      -2.83935419      -1.96542677       0.00000000
Si       3.28393368      -0.51538791      -1.77201913       0.00000000
