10
Lattice="16.28999089631971 0.0 0.0 0.0 16.28999089631971 0.0 0.0 0.0 34.450931932916035" Properties=species:S:1:pos:R:3:initial_magmoms:R:1 pbc="T T T"
Si      -1.35609363      -1.35659862       1.35705742       0.00000000
Si      -1.35718506       1.35803214      -1.35705742       0.00000000
Si       1.35742941      -1.35736425      -1.35757418       0.00000000
Si       1.36011726       1.35847197       1.35774644       0.00000000
Si      -2.71355562       0.00094482      -2.71535507       0.00000000
Si       2.71479366      -2.71477737      -0.00048231       0.00000000
Si      -2.71471221      -2.71492398       0.00031006       0.00000000
Si       2.71497285      -0.00275301       2.71473495       0.00000000
Si       2.71480995       0.00105885      -2.71511391       0.00000000
Si       2.71463076       2.71544526      -0.00024116       0.00000000
