10
Lattice="16.28999089631971 0.0 0.0 0.0 16.28999089631971 0.0 0.0 0.0 34.450931932916035" Properties=species:S:1:pos:R:3:initial_magmoms:R:1 pbc="T T T"
Si       1.50939882      -1.91751219      -0.07090006       0.00000000
Si       0.72712044       1.88962371      -1.39192178       0.00000000
Si       0.89704143       0.90995940       2.14636316       0.00000000
Si      -2.01974823      -0.91673604      -1.23234497       0.00000000
Si       1.99399374       0.41974443      -2.80265378       0.00000000
Si       3.27269358      -0.98337843      -1.39533242       0.00000000
Si      -0.73811619      -2.32546266      -2.77495522       0.00000000
Si      -0.22214673      -2.21123718       3.17289815       0.00000000
Si       0.67031721      -3.67886844      -1.37142346       0.00000000
Si       1.77130944       3.57316263      -0.01347032       0.00000000
