10
Lattice="16.28999089631971 0.0 0.0 0.0 16.28999089631971 0.0 0.0 0.0 34.450931932916035" Properties=species:S:1:pos:R:3:initial_magmoms:R:1 pbc="T T T"
Si      -0.01169622       2.14239564      -0.79275084       0.00000000
Si       1.40274819       0.01804932       1.90656081       0.00000000
Si       1.89799677      -0.89120961      -1.10184477       0.00000000
Si      -1.95589143      -1.19573487      -0.64716112       0.00000000
Si      -0.06897186      -1.26666153       3.18485061       0.00000000
Si       3.35885139      -0.79237818       0.76174498       0.00000000
Si      -1.20679578       3.08428344       1.28698418       0.00000000
Si      -1.38914604      -3.39793110      -0.27157685       0.00000000
Si      -1.78344549      -1.40312286      -2.96646805       0.00000000
Si      -1.60461387       2.39549337      -2.49018365       0.00000000
