10
Lattice="16.28999089631971 0.0 0.0 0.0 16.28999089631971 0.0 0.0 0.0 34.450931932916035" Properties=species:S:1:pos:R:3:initial_magmoms:R:1 pbc="T T T"
Si       1.34796492       1.33440270      -1.35925539       0.00000000
Si      -1.35663120       1.35594840       1.35471475       0.00000000
Si       1.35640314      -1.35777150       1.35464585       0.00000000
Si      -1.37761272      -1.32745581      -1.37513039       0.00000000
Si      -0.04421106       2.64300593      -2.70463393       0.00000000
Si      -0.04163724      -2.66144391      -2.75041925       0.00000000
Si      -0.00030951       2.71417205       2.71249564       0.00000000
Si       2.71456560      -0.00065160       2.71253009       0.00000000
Si      -2.71534752      -0.00055386       2.71263345       0.00000000
Si       0.00011403      -2.71601541       2.71315021       0.00000000
