10
Lattice="16.28999089631971 0.0 0.0 0.0 16.28999089631971 0.0 0.0 0.0 34.450931932916035" Properties=species:S:1:pos:R:3:initial_magmoms:R:1 pbc="T T T"
Si      -1.35765747      -1.35630540       1.35695407       0.00000000
Si       1.35904212       1.35627282       1.35709187       0.00000000
Si       1.35790182      -1.35767376      -1.35685071       0.00000000
Si      -1.35755973       1.35778779      -1.35736748       0.00000000
Si       2.71414206       0.00024435       2.71373588       0.00000000
Si       0.00267156      -2.71410948      -2.71442489       0.00000000
Si       2.71482624      -2.71438641      -0.00017225       0.00000000
Si       2.71419093       0.00057015      -2.71535507       0.00000000
Si       0.00115659       2.71429005      -2.71528617       0.00000000
Si      -2.71503801      -2.71476108       0.00024116       0.00000000
