10
Lattice="16.28999089631971 0.0 0.0 0.0 16.28999089631971 0.0 0.0 0.0 34.450931932916035" Properties=species:S:1:pos:R:3:initial_magmoms:R:1 pbc="T T T"
Si       1.31988585      -1.36708800       1.36250411       0.00000000
Si       1.63635168       1.12849789      -1.27301329       0.00000000
Si      -1.22303365      -1.29973202      -1.54719019       0.00000000
Si      -1.38453827       1.34057740       1.37165429       0.00000000
Si      -0.13467432       2.01281683      -2.56001370       0.00000000
Si       2.67026169      -2.59626666      -0.17016703       0.00000000
Si      -1.87980314       0.46254640      -3.22157532       0.00000000
Si      -2.78762855       2.57030950      -0.00504362       0.00000000
Si      -2.65273106      -2.70809751      -0.09011335       0.00000000
Si       2.68247919      -0.00728978       2.72133231       0.00000000
