10
Lattice="16.28999089631971 0.0 0.0 0.0 16.28999089631971 0.0 0.0 0.0 34.450931932916035" Properties=species:S:1:pos:R:3:initial_magmoms:R:1 pbc="T T T"
Si      -0.92401767       1.15670403      -1.84050762       0.00000000
Si      -0.61734213       1.31999499       1.88691305       0.00000000
Si       2.39124168      -0.02047653      -0.35484480       0.00000000
Si      -0.88299945      -2.01694635       1.00851715       0.00000000
Si      -0.19117944       3.37150450      -1.33897067       0.00000000
Si       0.51805458      -2.20802805       2.88175316       0.00000000
Si      -0.00697212      -0.04887000       3.71047080       0.00000000
Si      -3.26132316       1.38394953      -1.55532264       0.00000000
Si       3.16661310      -2.26307196       0.17563095       0.00000000
Si       3.23666010       2.06161353       0.73456318       0.00000000
