10
Lattice="16.28999089631971 0.0 0.0 0.0 16.28999089631971 0.0 0.0 0.0 34.450931932916035" Properties=species:S:1:pos:R:3:initial_magmoms:R:1 pbc="T T T"
Si      -0.99885393      -1.83904326      -1.13601254       0.00000000
Si      -1.33582887       1.33250571       1.51061564       0.00000000
Si       1.38608352      -1.34439741       1.51127366       0.00000000
Si       0.86475465       1.88807616      -1.31738857       0.00000000
Si       0.88896159      -3.46842933      -0.95023130       0.00000000
Si      -0.22590972       1.15945704      -3.55122269       0.00000000
Si       2.80367190      -2.64088267       0.12949424       0.00000000
Si      -2.64608244       2.81663874       0.21715813       0.00000000
Si       2.77457796       2.75133213       0.03293511       0.00000000
Si      -2.73328281      -2.79662322       0.18211117       0.00000000
