10
Lattice="16.28999089631971 0.0 0.0 0.0 16.28999089631971 0.0 0.0 0.0 34.450931932916035" Properties=species:S:1:pos:R:3:initial_magmoms:R:1 pbc="T T T"
Si       0.80101188      -2.16461098       0.36452551       0.00000000
Si       0.90855846       2.09863581       0.51517952       0.00000000
Si       0.86188761      -0.10271660      -2.20696238       0.00000000
Si      -2.19177063       0.15666093       1.00441748       0.00000000
Si      -1.14240141      -0.88518883       2.80327390       0.00000000
Si      -1.10449458      -3.17828881      -0.65977017       0.00000000
Si      -0.79778646       3.34959378      -0.57581320       0.00000000
Si       3.08205171      -0.78324763      -1.52665945       0.00000000
Si      -1.12098006      -0.90909114      -3.30229593       0.00000000
Si      -2.67657732       2.44847985       0.55531488       0.00000000
