10
Lattice="16.28999089631971 0.0 0.0 0.0 16.28999089631971 0.0 0.0 0.0 34.450931932916035" Properties=species:S:1:pos:R:3:initial_magmoms:R:1 pbc="T T T"
Si       1.35532800      -1.35553977       1.35940008       0.00000000
Si      -1.36130643       1.36088289       1.35902112       0.00000000
Si       1.36925595       1.36288656      -1.36151882       0.00000000
Si      -1.36528119      -1.36985868      -1.37206425       0.00000000
Si      -2.67553476       0.11427435      -2.66552177       0.00000000
Si       0.01456326       2.72618037      -2.67392436       0.00000000
Si       2.70817992      -2.71024875       0.00344510       0.00000000
Si       2.71111212       2.71601541       0.00482313       0.00000000
Si       2.71140534       0.00241092       2.71676756       0.00000000
Si      -0.00333945      -2.71249677       2.71680201       0.00000000
