10
Lattice="16.28999089631971 0.0 0.0 0.0 16.28999089631971 0.0 0.0 0.0 34.450931932916035" Properties=species:S:1:pos:R:3:initial_magmoms:R:1 pbc="T T T"
Si      -1.03242762      -1.89227898       1.09154394       0.00000000
Si      -0.71824239       2.30645223      -0.26120711       0.00000000
Si       2.30099508       0.43621362       0.68371358       0.00000000
Si      -1.04441706      -0.78990210      -2.10247265       0.00000000
Si      -1.73517822       2.79661833       1.82152514       0.00000000
Si      -2.58502752       2.41365672      -1.86634583       0.00000000
Si       0.03852585      -3.94626879       0.66865851       0.00000000
Si       1.12192488       3.69792774      -1.07631662       0.00000000
Si       2.68752420       2.69796609       1.34479288       0.00000000
Si       0.38758797      -2.15490636      -3.40644115       0.00000000
