10
Lattice="16.28999089631971 0.0 0.0 0.0 16.28999089631971 0.0 0.0 0.0 34.450931932916035" Properties=species:S:1:pos:R:3:initial_magmoms:R:1 pbc="T T T"
Si       1.77102599      -0.88431894       1.28700041       0.00000000
Si       1.41564335       0.48526281      -1.86954977       0.00000000
Si      -1.14411838       1.71017307       1.24113872       0.00000000
Si      -1.74512882      -1.55027043      -0.66156162       0.00000000
Si       0.13467432      -2.01281683       2.56001370       0.00000000
Si      -2.65715705       2.39428791      -0.36132158       0.00000000
Si       0.43314458       2.53596204      -2.52291206       0.00000000
Si      -1.08835933      -3.31254886       1.01282351       0.00000000
Si       1.21900676      -1.45375218      -3.17882372       0.00000000
Si      -2.65295423       0.55749267       2.55497008       0.00000000
