10
Lattice="16.28999089631971 0.0 0.0 0.0 16.28999089631971 0.0 0.0 0.0 34.450931932916035" Properties=species:S:1:pos:R:3:initial_magmoms:R:1 pbc="T T T"
Si       2.07664920      -1.03811283       0.30161808       0.00000000
Si      -1.14202674      -1.37476197      -1.52324881       0.00000000
Si      -0.88172883      -0.56454624       2.13592452       0.00000000
Si      -0.42168294       2.37410460      -0.15520154       0.00000000
Si      -3.18441807      -0.35476362      -1.03935075       0.00000000
Si      -3.07752309      -0.29538657       1.45048840       0.00000000
Si       0.76804092       3.29988159       1.70914614       0.00000000
Si      -0.05439231      -2.68936497       2.68669188       0.00000000
Si      -0.30170709      -0.90204246      -3.69617365       0.00000000
Si       3.73246254       0.04974966      -0.88642297       0.00000000
