10
Lattice="16.28999089631971 0.0 0.0 0.0 16.28999089631971 0.0 0.0 0.0 34.450931932916035" Properties=species:S:1:pos:R:3:initial_magmoms:R:1 pbc="T T T"
Si       2.19872646       0.77683752      -0.07648111       0.00000000
Si      -0.82733652       2.12481873      -0.55076736       0.00000000
Si       0.25624170      -1.55652579      -1.80874384       0.00000000
Si       1.09066437       0.72861912       2.23383413       0.00000000
Si      -0.76097106       2.61158022       2.34252688       0.00000000
Si       2.13104151       1.65125214      -2.38507380       0.00000000
Si       2.13503256      -0.65541186      -2.93987192       0.00000000
Si       0.22590972      -1.15945704       3.55122269       0.00000000
Si       0.05439231       2.68936497      -2.68669188       0.00000000
Si      -1.38681657      -0.95794974      -3.42738733       0.00000000
