10
Lattice="16.28999089631971 0.0 0.0 0.0 16.28999089631971 0.0 0.0 0.0 34.450931932916035" Properties=species:S:1:pos:R:3:initial_magmoms:R:1 pbc="T T T"
Si      -0.86475465      -1.88807616       1.31738857       0.00000000
Si       1.90982331       0.86325597       1.35032367       0.00000000
Si       1.10806209       0.04821840      -2.31031524       0.00000000
Si      -1.09066437      -0.72861912      -2.23383413       0.00000000
Si      -1.85163543       1.88296110       0.10869275       0.00000000
Si       0.53395362       2.17717479       2.83854964       0.00000000
Si      -2.20058352      -0.55557045       2.82800421       0.00000000
Si      -1.91800089       1.39619961      -2.78460148       0.00000000
Si       2.72686455      -1.71994707      -1.88322680       0.00000000
Si      -0.82073907       3.54046860       1.52614410       0.00000000
