10
Lattice="16.28999089631971 0.0 0.0 0.0 16.28999089631971 0.0 0.0 0.0 34.450931932916035" Properties=species:S:1:pos:R:3:initial_magmoms:R:1 pbc="T T T"
Si      -1.76950125       0.83395026      -1.20066096       0.00000000
Si      -1.45231866      -1.17936342       1.37702953       0.00000000
Si       1.26635202       1.51560531       1.29733759       0.00000000
Si       1.42229619       0.10883349      -3.21476692       0.00000000
Si      -0.89981073       0.54079542      -3.36049444       0.00000000
Si      -0.09762597      -2.54265723       2.68943507       0.00000000
Si       2.60444520       0.14592582       2.68299963       0.00000000
Si      -3.50129115      -0.79034193      -1.07873904       0.00000000
Si      -2.48321502      -2.83687092      -0.04042182       0.00000000
Si       2.38467681       1.99831059      -2.16108457       0.00000000
