10
Lattice="16.28999089631971 0.0 0.0 0.0 16.28999089631971 0.0 0.0 0.0 34.450931932916035" Properties=species:S:1:pos:R:3:initial_magmoms:R:1 pbc="T T T"
Si      -1.18519524      -1.61218872       1.24460951       0.00000000
Si      -1.34058555       1.35474156      -1.46602578       0.00000000
Si       1.38438936      -1.35848826      -1.45400239       0.00000000
Si       0.94423356       1.85706000       1.32818752       0.00000000
Si      -1.48511043      -0.56638701       3.24800123       0.00000000
Si       2.63000421       2.68159464      -0.15203205       0.00000000
Si      -2.53835667       2.84305006       0.02501139       0.00000000
Si      -2.76825744      -2.73841416      -0.07730793       0.00000000
Si      -2.69363295      -0.00042354      -2.84916256       0.00000000
Si       2.79096570      -2.76330528       0.03920518       0.00000000
