10
Lattice="16.28999089631971 0.0 0.0 0.0 16.28999089631971 0.0 0.0 0.0 34.450931932916035" Properties=species:S:1:pos:R:3:initial_magmoms:R:1 pbc="T T T"
Si       1.43277066       0.60113358      -1.72692283       0.00000000
Si      -0.47156292       1.97035762       1.18139202       0.00000000
Si      -1.93249899      -1.11330747      -0.91160662       0.00000000
Si       0.78708393      -1.24312248       1.94968268       0.00000000
Si      -2.11201479       0.71977365       2.36371421       0.00000000
Si       0.67360779      -1.19477376      -3.18574836       0.00000000
Si      -2.95743321      -1.36231641       1.27430623       0.00000000
Si      -1.03449645      -2.76289803      -2.39847522       0.00000000
Si      -0.45507744      -0.29884005       3.82391778       0.00000000
Si       3.69721098       0.21323610      -1.17818808       0.00000000
