10
Lattice="16.28999089631971 0.0 0.0 0.0 16.28999089631971 0.0 0.0 0.0 34.450931932916035" Properties=species:S:1:pos:R:3:initial_magmoms:R:1 pbc="T T T"
Si      -0.74191176       2.18978881       0.54535856       0.00000000
Si       1.57459140      -1.76324589       0.32800751       0.00000000
Si       1.20150153       0.91036665      -1.89338983       0.00000000
Si      -1.95328503      -0.93535551      -1.12196413       0.00000000
Si      -0.70400493      -0.10331118      -2.91768551       0.00000000
Si      -1.70989614      -3.22076106      -0.87140236       0.00000000
Si       2.32880211      -1.51259166       2.52121883       0.00000000
Si       0.61221078      -3.65272299      -0.72567484       0.00000000
Si       0.40048965       3.07497763      -2.25791534       0.00000000
Si      -1.79128098       3.23163856      -1.25349786       0.00000000
