10
Lattice="16.28999089631971 0.0 0.0 0.0 16.28999089631971 0.0 0.0 0.0 34.450931932916035" Properties=species:S:1:pos:R:3:initial_magmoms:R:1 pbc="T T T"
Si       1.04550849      -1.97402220      -0.83533221       0.00000000
Si      -0.33417306       0.94148055      -2.24744225       0.00000000
Si      -1.41203349      -1.22696280       1.66992859       0.00000000
Si       1.28875077       1.44164871       1.60290771       0.00000000
Si       1.67181012       0.01822851      -3.24572746       0.00000000
Si      -0.68628141      -3.59831439      -0.71341030       0.00000000
Si      -2.64238461      -2.78788689       0.43140553       0.00000000
Si       2.81500974      -2.80797246       0.36532874       0.00000000
Si      -0.02774187      -2.62493802       3.05324108       0.00000000
Si      -1.97947935      -0.24159699      -3.52574480       0.00000000
