10
Lattice="16.28999089631971 0.0 0.0 0.0 16.28999089631971 0.0 0.0 0.0 34.450931932916035" Properties=species:S:1:pos:R:3:initial_magmoms:R:1 pbc="T T T"
Si      -1.40309028       1.22973210      -1.37669791       0.00000000
Si      -1.35980775      -1.34847805       1.35095271       0.00000000
Si       1.35667422       1.36554183       1.35508682       0.00000000
Si       1.38453827      -1.34057740      -1.37165429       0.00000000
Si       0.10574558       2.38241250      -2.69052927       0.00000000
Si       2.70442412      -2.70766540      -0.00915017       0.00000000
Si       2.70496169       2.71106325       0.00181212       0.00000000
Si      -0.00178636      -2.70491662       2.71148967       0.00000000
Si       2.70921338       0.00936675       2.70997383       0.00000000
Si      -2.71375110      -2.71217816      -0.02741607       0.00000000
