10
Lattice="16.28999089631971 0.0 0.0 0.0 16.28999089631971 0.0 0.0 0.0 34.450931932916035" Properties=species:S:1:pos:R:3:initial_magmoms:R:1 pbc="T T T"
Si       1.35980775       1.34847805      -1.35095271       0.00000000
Si       1.35802139      -1.35643856       1.36053696       0.00000000
Si      -1.35817875       1.35971815       1.35840101       0.00000000
Si      -1.35394335      -1.36370010      -1.37836878       0.00000000
Si      -0.04328253       2.57821015      -2.72765062       0.00000000
Si      -2.65342923       0.08561535      -2.75332346       0.00000000
Si       2.71332334      -2.71440174       0.00520209       0.00000000
Si       2.71350253       0.00098229       2.71697427       0.00000000
Si      -2.71650411      -2.71399449      -0.00062012       0.00000000
Si       2.71648197       2.71401988       0.00413411       0.00000000
