10
Lattice="16.28999089631971 0.0 0.0 0.0 16.28999089631971 0.0 0.0 0.0 34.450931932916035" Properties=species:S:1:pos:R:3:initial_magmoms:R:1 pbc="T T T"
Si       1.35677586      -1.35211465       1.35902112       0.00000000
Si      -1.35749457      -1.35615054      -1.35654065       0.00000000
Si       1.35742675       1.35843450      -1.35609279       0.00000000
Si      -1.35645201       1.35731049       1.36060587       0.00000000
Si       0.00071676      -2.71351882      -2.71342582       0.00000000
Si       2.71487089       0.00113216      -2.71346027       0.00000000
Si      -2.71450044      -2.71386091       0.00110243       0.00000000
Si       2.71533353      -2.71324189       0.00079237       0.00000000
Si      -2.71510317       0.00162737      -2.71373588       0.00000000
Si      -0.00008145       2.71620600      -2.71394258       0.00000000
