10
Lattice="16.28999089631971 0.0 0.0 0.0 16.28999089631971 0.0 0.0 0.0 34.450931932916035" Properties=species:S:1:pos:R:3:initial_magmoms:R:1 pbc="T T T"
Si      -1.44389673      -1.10565117      -1.47625771       0.00000000
Si      -1.43200503       1.36500426       1.30396850       0.00000000
Si       1.23830064       1.55890413      -1.41166218       0.00000000
Si      -0.04069242      -1.97589555       1.67080223       0.00000000
Si      -2.29944753      -2.84316212       0.08440483       0.00000000
Si      -0.09847305      -2.37614899      -3.00012663       0.00000000
Si      -2.47207266       3.00345246      -0.13384195       0.00000000
Si       2.63391381       0.31369653      -2.95888884       0.00000000
Si      -0.38758797       2.15490636       3.40644115       0.00000000
Si       2.21824188       3.39201783      -0.05849772       0.00000000
