10
Lattice="16.28999089631971 0.0 0.0 0.0 16.28999089631971 0.0 0.0 0.0 34.450931932916035" Properties=species:S:1:pos:R:3:initial_magmoms:R:1 pbc="T T T"
Si       2.07893699      -0.42459885      -1.00173031       0.00000000
Si       0.32153202      -0.43021890       2.30652563       0.00000000
Si      -0.49067109       2.32712424       0.12033717       0.00000000
Si      -1.95333390      -1.35167904      -0.30079125       0.00000000
Si      -1.85324814       0.04838130       2.94941483       0.00000000
Si      -1.79263305       2.34892026       2.15535486       0.00000000
Si      -1.31219208      -3.56609996      -0.69680494       0.00000000
Si       3.86427212       0.34648830       0.35546491       0.00000000
Si       1.56910234       3.53991474       0.45540712       0.00000000
Si       1.83899017       1.10666115       3.28004061       0.00000000
