10
Lattice="16.28999089631971 0.0 0.0 0.0 16.28999089631971 0.0 0.0 0.0 34.450931932916035" Properties=species:S:1:pos:R:3:initial_magmoms:R:1 pbc="T T T"
Si       0.64114182      -2.21442092      -0.39601368       0.00000000
Si      -1.80869499       0.30582846      -1.52190522       0.00000000
Si       1.95333390       1.35167904       0.30079125       0.00000000
Si      -1.10268639      -0.32473789       2.11160215       0.00000000
Si      -3.17580066      -1.46456548      -0.45065289       0.00000000
Si       0.10008576       1.40006034       3.25020609       0.00000000
Si       2.27486592       0.92146014       2.60731689       0.00000000
Si      -1.59239637      -3.15208961      -0.65756531       0.00000000
Si      -2.87964846       2.35981827      -1.09901979       0.00000000
Si      -0.79491942      -2.70235529       2.70030000       0.00000000
