10
Lattice="16.28999089631971 0.0 0.0 0.0 16.28999089631971 0.0 0.0 0.0 34.450931932916035" Properties=species:S:1:pos:R:3:initial_magmoms:R:1 pbc="T T T"
Si      -1.35620766      -1.34713413       1.38217561       0.00000000
Si       1.36042677       1.36622601       1.37755918       0.00000000
Si       1.31997870      -1.48753764      -1.34878230       0.00000000
Si      -1.31926194       1.41208236      -1.47101427       0.00000000
Si      -2.70775638      -2.68364718       0.00732427       0.00000000
Si      -2.69513163       2.72600118       0.01721170       0.00000000
Si       2.72306898      -2.71726974       0.02791561       0.00000000
Si       2.73336607       2.70801702       0.03173277       0.00000000
Si       0.00508248      -2.70602964       2.73726932       0.00000000
Si      -2.70905958       0.00757485       2.73813059       0.00000000
