10
Lattice="16.28999089631971 0.0 0.0 0.0 16.28999089631971 0.0 0.0 0.0 34.450931932916035" Properties=species:S:1:pos:R:3:initial_magmoms:R:1 pbc="T T T"
Si      -1.35358497       1.35457866       1.36088147       0.00000000
Si       1.35786963       1.35573525      -1.35636840       0.00000000
Si      -1.35664749      -1.35927018      -1.35629950       0.00000000
Si       1.35936630      -1.35930276       1.36570461       0.00000000
Si      -2.71467963       2.71210581       0.00165365       0.00000000
Si      -0.00008145       2.71293660      -2.71387368       0.00000000
Si      -2.71443528      -0.00162900      -2.71373588       0.00000000
Si       2.71563164       2.71327869       0.00031006       0.00000000
Si       2.71543779      -0.00200367      -2.71390813       0.00000000
Si      -2.71448415      -2.71614573       0.00065457       0.00000000
