10
Lattice="16.28999089631971 0.0 0.0 0.0 16.28999089631971 0.0 0.0 0.0 34.450931932916035" Properties=species:S:1:pos:R:3:initial_magmoms:R:1 pbc="T T T"
Si       1.35519606       1.35772263      -1.38995808       0.00000000
Si      -1.36018242      -1.35871632      -1.39498792       0.00000000
Si      -1.39561317       1.24520760       1.54722667       0.00000000
Si       1.35874890      -1.39124745       1.52280094       0.00000000
Si       2.70184215      -2.70758696      -0.02855984       0.00000000
Si      -2.70858717       2.70111006      -0.01688097       0.00000000
Si      -2.73238686      -2.68984552      -0.04123779       0.00000000
Si       2.72147812       2.71049310       0.00516764       0.00000000
Si       2.71261473      -0.00083079      -2.75531817       0.00000000
Si      -0.00373041      -2.71602681      -2.75559378       0.00000000
