10
Lattice="16.28999089631971 0.0 0.0 0.0 16.28999089631971 0.0 0.0 0.0 34.450931932916035" Properties=species:S:1:pos:R:3:initial_magmoms:R:1 pbc="T T T"
Si       1.39561317      -1.24520760      -1.54722667       0.00000000
Si      -1.23830064      -1.55890413       1.41166218       0.00000000
Si       0.97994124       1.83311370       1.35316446       0.00000000
Si      -1.31297400       1.45590246      -1.56410763       0.00000000
Si      -2.68219737      -2.66455530      -0.06459553       0.00000000
Si       2.75436207      -2.63645505      -0.02442572       0.00000000
Si      -2.67030567      -0.19389987       2.71563068       0.00000000
Si      -2.48199327       2.90365992      -0.11902804       0.00000000
Si       0.03543075      -2.60392392      -2.94221458       0.00000000
Si       2.71875213       2.84522769      -0.09443006       0.00000000
