10
Lattice="16.28999089631971 0.0 0.0 0.0 16.28999089631971 0.0 0.0 0.0 34.450931932916035" Properties=species:S:1:pos:R:3:initial_magmoms:R:1 pbc="T T T"
Si      -2.25333054       0.61289496      -0.10604003       0.00000000
Si       0.82640799       1.24493067       1.84874139       0.00000000
Si       1.30196196      -0.02179602      -2.03501769       0.00000000
Si      -0.06061509      -2.30053896       0.79405997       0.00000000
Si       0.00500103       3.13613451      -1.03786936       0.00000000
Si       2.11416507      -2.77913916       0.15117077       0.00000000
Si      -2.72740212       0.83637747       2.22522139       0.00000000
Si       1.79263305      -2.34892026      -2.15535486       0.00000000
Si      -3.38292801      -1.11930219      -1.22073500       0.00000000
Si      -2.34628128       2.81948949      -0.99180843       0.00000000
