10
Lattice="16.28999089631971 0.0 0.0 0.0 16.28999089631971 0.0 0.0 0.0 34.450931932916035" Properties=species:S:1:pos:R:3:initial_magmoms:R:1 pbc="T T T"
Si       1.51303868      -0.68411484       1.60246030       0.00000000
Si       0.78604137      -0.07714944      -2.25323001       0.00000000
Si      -1.81799658      -1.52037828      -0.43949078       0.00000000
Si      -0.92235609       2.07107802       1.24040650       0.00000000
Si       0.00420282      -1.83679524       2.91629166       0.00000000
Si      -0.87952968       3.24107469      -0.88246111       0.00000000
Si      -1.10869740      -3.10829490       1.29601033       0.00000000
Si      -3.43679904       0.24778719      -0.86657923       0.00000000
Si      -0.04668714       2.00681397      -2.93966521       0.00000000
Si       2.65715705      -2.39428791       0.36132158       0.00000000
