10
Lattice="16.28999089631971 0.0 0.0 0.0 16.28999089631971 0.0 0.0 0.0 34.450931932916035" Properties=species:S:1:pos:R:3:initial_magmoms:R:1 pbc="T T T"
Si       0.04282641       1.16999667      -2.12286761       0.00000000
Si       1.06539858       1.56846636       1.60526071       0.00000000
Si      -1.71268173      -1.00825326       1.55365319       0.00000000
Si       0.92235609      -2.07107802      -1.24040650       0.00000000
Si       2.18931084       2.38428585      -1.60424299       0.00000000
Si       2.43539477      -2.75519286       0.36205380       0.00000000
Si      -2.51444295      -1.82329083      -2.10698572       0.00000000
Si       2.33994628       0.28768140       3.05640023       0.00000000
Si      -0.39341979      -2.42033562       3.02466746       0.00000000
Si       2.00355597       3.46445946       0.51663822       0.00000000
