10
Lattice="16.28999089631971 0.0 0.0 0.0 16.28999089631971 0.0 0.0 0.0 34.450931932916035" Properties=species:S:1:pos:R:3:initial_magmoms:R:1 pbc="T T T"
Si       0.74748294       1.81543905      -1.41955144       0.00000000
Si       0.15548805       0.61457283       2.37945830       0.00000000
Si       1.63939302      -1.84624344      -0.00916395       0.00000000
Si      -1.82254149      -0.77569722      -1.48135645       0.00000000
Si       2.05126938       0.50435469      -2.93274057       0.00000000
Si       0.30247272       2.99413458       2.10870827       0.00000000
Si      -1.68467922      -0.77690268       3.19456780       0.00000000
Si       2.41033356       2.84377788      -0.11609971       0.00000000
Si      -0.65352222      -2.22345468      -2.92643605       0.00000000
Si       3.37820391      -0.83412945      -1.45675847       0.00000000
