10
Lattice="16.28999089631971 0.0 0.0 0.0 16.28999089631971 0.0 0.0 0.0 34.450931932916035" Properties=species:S:1:pos:R:3:initial_magmoms:R:1 pbc="T T T"
Si       1.66285062       1.02833883       1.30345174       0.00000000
Si       1.30378644      -1.31108436      -1.51318913       0.00000000
Si      -0.74748294      -1.81543905       1.41955144       0.00000000
Si      -1.40657634       1.40481702      -1.49320758       0.00000000
Si      -2.57002443      -2.59113627      -0.06180501       0.00000000
Si       2.63072097      -2.64956850      -0.03720703       0.00000000
Si      -0.44501022       1.17869553       3.52825971       0.00000000
Si       3.50647530      -0.81482580       1.19517240       0.00000000
Si       2.72161723       2.73566115      -0.04471733       0.00000000
Si       2.65934566       0.04483008      -2.88164981       0.00000000
