10
Lattice="16.28999089631971 0.0 0.0 0.0 16.28999089631971 0.0 0.0 0.0 34.450931932916035" Properties=species:S:1:pos:R:3:initial_magmoms:R:1 pbc="T T T"
Si      -1.28482814       1.52089956       1.13167930       0.00000000
Si      -0.73362015      -0.88609455      -2.05107183       0.00000000
Si       1.92541284      -1.08989874       0.89641375       0.00000000
Si       0.22597488       0.91352691      -3.32238083       0.00000000
Si       2.18940858       1.89084546      -1.92611823       0.00000000
Si      -1.10534166      -1.91964618       2.92705617       0.00000000
Si       1.01887434      -2.68418475      -2.35892553       0.00000000
Si      -0.06366132       2.74022235       2.70305608       0.00000000
Si       2.44460772      -0.18086787       2.97831918       0.00000000
Si       2.76933258       2.90926368       0.37055443       0.00000000
