10
Lattice="16.28999089631971 0.0 0.0 0.0 16.28999089631971 0.0 0.0 0.0 34.450931932916035" Properties=species:S:1:pos:R:3:initial_magmoms:R:1 pbc="T T T"
Si      -0.24905781       1.87668945      -1.25770087       0.00000000
Si       0.14587695       0.19152153       2.28568281       0.00000000
Si       2.26183133      -0.30172338      -0.33262393       0.00000000
Si      -0.48524652      -2.25302103      -0.08051187       0.00000000
Si       0.18935496      -2.13969150      -2.34455948       0.00000000
Si       1.14127740      -2.00852442       2.29023033       0.00000000
Si      -2.20503069       2.70197343      -0.25731415       0.00000000
Si       2.39382106      -0.94892508      -2.56125597       0.00000000
Si       2.77515367      -2.33425926       0.67840813       0.00000000
Si      -1.79636346      -0.85639788       3.12425341       0.00000000
