10
Lattice="16.28999089631971 0.0 0.0 0.0 16.28999089631971 0.0 0.0 0.0 34.450931932916035" Properties=species:S:1:pos:R:3:initial_magmoms:R:1 pbc="T T T"
Si      -0.14587695      -0.19152153      -2.28568281       0.00000000
Si      -1.94224041      -1.04791941       0.83857060       0.00000000
Si       0.99540045      -2.20004595       0.00454753       0.00000000
Si       1.08429498       2.00753073       0.85348786       0.00000000
Si       2.11595438      -0.49324491      -2.61830674       0.00000000
Si       2.06454803      -1.80128304       2.08945019       0.00000000
Si      -0.63112347      -2.44454256      -2.36619468       0.00000000
Si       0.14027319       2.13713397       3.05910666       0.00000000
Si      -2.88021861       0.23491809       2.51829563       0.00000000
Si       3.41114948       1.69526772       0.43470210       0.00000000
