10
Lattice="16.28999089631971 0.0 0.0 0.0 16.28999089631971 0.0 0.0 0.0 34.450931932916035" Properties=species:S:1:pos:R:3:initial_magmoms:R:1 pbc="T T T"
Si       0.48524652       2.25302103       0.08051187       0.00000000
Si       0.67460148       0.11332953      -2.26404761       0.00000000
Si      -2.35128231      -0.31664502       0.04606092       0.00000000
Si       1.62652392       0.24449661       2.37074221       0.00000000
Si      -0.00500103      -3.13613451       1.03786936       0.00000000
Si       3.26040019      -0.08123823       0.75892000       0.00000000
Si       2.74707785       1.95129765      -0.25211206       0.00000000
Si       0.63112347       2.44454256       2.36619468       0.00000000
Si      -2.25833157      -2.52323955       0.93182933       0.00000000
Si       0.82140696      -1.89120384       2.88661075       0.00000000
