10
Lattice="16.28999089631971 0.0 0.0 0.0 16.28999089631971 0.0 0.0 0.0 34.450931932916035" Properties=species:S:1:pos:R:3:initial_magmoms:R:1 pbc="T T T"
Si       1.35677769      -1.35306369       1.36263847       0.00000000
Si      -1.35694071       1.36267479       1.36298298       0.00000000
Si      -1.35495333      -1.37630952      -1.36413020       0.00000000
Si       1.37446258       1.37497374      -1.35516262       0.00000000
Si       2.71479596      -2.71050939       0.00334174       0.00000000
Si      -2.71516833      -2.71176372       0.00864719       0.00000000
Si      -0.00052128      -2.71080261       2.72045381       0.00000000
Si       2.71469170       2.71894761       0.00916395       0.00000000
Si      -2.71513575       2.71935486       0.00334174       0.00000000
Si      -2.71489140       0.00395847       2.72055716       0.00000000
