10
Lattice="16.28999089631971 0.0 0.0 0.0 16.28999089631971 0.0 0.0 0.0 34.450931932916035" Properties=species:S:1:pos:R:3:initial_magmoms:R:1 pbc="T T T"
Si       1.28147926      -1.35817875       1.45359587       0.00000000
Si      -1.44555831       1.33649676       1.43435157       0.00000000
Si       1.42969741       1.40836549      -1.45707684       0.00000000
Si      -0.91349433      -2.00642301      -1.20624459       0.00000000
Si       2.79481896      -2.51633259       0.01324639       0.00000000
Si       2.65273106       2.70809751       0.09011335       0.00000000
Si       2.62170838      -0.01420488       2.81792244       0.00000000
Si      -0.09161496       2.70019686       2.81272035       0.00000000
Si      -2.78602983      -2.73978252       0.05896625       0.00000000
Si       0.94209957      -3.63925116      -1.07417721       0.00000000
