10
Lattice="16.28999089631971 0.0 0.0 0.0 16.28999089631971 0.0 0.0 0.0 34.450931932916035" Properties=species:S:1:pos:R:3:initial_magmoms:R:1 pbc="T T T"
Si       1.28482814      -1.52089956      -1.13167930       0.00000000
Si       1.22116682       1.21932279       1.57137679       0.00000000
Si      -1.92149088       1.04324418      -0.94302589       0.00000000
Si      -0.33034817       0.52396785       3.25251430       0.00000000
Si      -3.39901017       0.32068494       0.98946577       0.00000000
Si      -0.69647080       3.31522677      -1.09960546       0.00000000
Si      -2.39012160      -0.68882265       2.91744435       0.00000000
Si       3.50983037       0.63687384       1.51935585       0.00000000
Si       0.17948648      -3.44054574       1.79537687       0.00000000
Si       0.55120799      -2.40699411      -3.18275113       0.00000000
