10
Lattice="16.28999089631971 0.0 0.0 0.0 16.28999089631971 0.0 0.0 0.0 34.450931932916035" Properties=species:S:1:pos:R:3:initial_magmoms:R:1 pbc="T T T"
Si      -0.93661147       1.37428956       1.64641096       0.00000000
Si       1.92723243      -0.90696204       0.97702898       0.00000000
Si       1.22814708       1.05629247      -1.69595142       0.00000000
Si      -1.51745815      -1.53688005      -0.97351498       0.00000000
Si      -1.63386649      -0.59987925       2.77595429       0.00000000
Si       2.54519358      -2.05558623      -0.98984473       0.00000000
Si       2.02528194      -0.76017285      -2.92457570       0.00000000
Si      -0.95001325      -3.58535570      -0.01908583       0.00000000
Si       3.32406735       0.96500331       1.33621459       0.00000000
Si      -0.26988783       2.43325359      -2.82463349       0.00000000
