10
Lattice="16.28999089631971 0.0 0.0 0.0 16.28999089631971 0.0 0.0 0.0 34.450931932916035" Properties=species:S:1:pos:R:3:initial_magmoms:R:1 pbc="T T T"
Si      -2.30426027      -0.21882357      -0.09163953       0.00000000
Si       0.98080461       1.10846934      -1.81580628       0.00000000
Si       0.98249877      -2.05069923       0.65336229       0.00000000
Si       1.03711914       1.38183183       1.64238020       0.00000000
Si       3.22937847       0.32052204       1.50667790       0.00000000
Si       0.64281969       3.37664007      -1.05251101       0.00000000
Si      -0.43314458      -2.53596204       2.52291206       0.00000000
Si      -2.68657028      -2.21672691      -1.28353909       0.00000000
Si      -3.13698878       1.86513984      -0.77807473       0.00000000
Si      -3.09030164      -0.14167413       2.16159048       0.00000000
