10
Lattice="16.28999089631971 0.0 0.0 0.0 16.28999089631971 0.0 0.0 0.0 34.450931932916035" Properties=species:S:1:pos:R:3:initial_magmoms:R:1 pbc="T T T"
Si      -0.56674539       2.20219623      -0.37558427       0.00000000
Si       0.31071546       0.21778101       2.32842786       0.00000000
Si      -1.03711914      -1.38183183      -1.64238020       0.00000000
Si       2.19225933      -1.06130979      -0.13570230       0.00000000
Si      -0.39429945       1.99480824      -2.69489121       0.00000000
Si       2.26950651      -1.26736200       2.27542645       0.00000000
Si      -0.05631453      -0.27336249      -3.45818648       0.00000000
Si      -0.05462037      -3.43253106      -0.98901791       0.00000000
Si       1.38914604       3.39793110       0.27157685       0.00000000
Si       3.50391384       0.34142211      -1.50709131       0.00000000
