10
Lattice="16.28999089631971 0.0 0.0 0.0 16.28999089631971 0.0 0.0 0.0 34.450931932916035" Properties=species:S:1:pos:R:3:initial_magmoms:R:1 pbc="T T T"
Si      -1.35736425       1.35568638      -1.36174275       0.00000000
Si       1.35894438      -1.35840681      -1.36136379       0.00000000
Si       1.34355033       1.34819298       1.38747761       0.00000000
Si      -1.34734753      -1.36412460       1.39877752       0.00000000
Si      -2.71706199       2.71021617       0.00196370       0.00000000
Si       2.71261080       2.71528236       0.00168810       0.00000000
Si       2.71042794      -2.71878471      -0.00327284       0.00000000
Si      -2.71362959      -2.71689507       0.00365180       0.00000000
Si      -0.00019548       2.71326240      -2.71824895       0.00000000
Si       2.71503801      -0.00180819      -2.71842121       0.00000000
