10
Lattice="16.28999089631971 0.0 0.0 0.0 16.28999089631971 0.0 0.0 0.0 34.450931932916035" Properties=species:S:1:pos:R:3:initial_magmoms:R:1 pbc="T T T"
Si      -0.17244594       0.20738799       2.31930694       0.00000000
Si       0.68833395       2.02281075      -1.03363189       0.00000000
Si      -2.28230393       0.03117906      -0.68491936       0.00000000
Si       0.33798492      -2.26817073      -0.76329527       0.00000000
Si       0.39429945      -1.99480824       2.69489121       0.00000000
Si      -0.33603012       1.57284837      -3.10003439       0.00000000
Si      -0.58855770      -2.02737195      -2.86432098       0.00000000
Si      -1.99618149      -0.14833674      -2.97704450       0.00000000
Si      -0.64281969      -3.37664007       1.05251101       0.00000000
Si       1.78344549       1.40312286       2.96646805       0.00000000
