10
Lattice="16.28999089631971 0.0 0.0 0.0 16.28999089631971 0.0 0.0 0.0 34.450931932916035" Properties=species:S:1:pos:R:3:initial_magmoms:R:1 pbc="T T T"
Si       1.02436407       0.44996238       2.06640250       0.00000000
Si      -0.31354992       1.77536565      -1.53175819       0.00000000
Si       1.28021481      -1.91019798      -0.58976583       0.00000000
Si      -1.66015137      -1.72118511       0.12298990       0.00000000
Si      -1.94627381      -1.54166931       2.41511503       0.00000000
Si       0.33603012      -1.57284837       3.10003439       0.00000000
Si      -2.64040442       2.08762866      -1.11297243       0.00000000
Si       3.30910173       0.42653736       1.31395928       0.00000000
Si      -0.25252758      -3.60022032       0.23571341       0.00000000
Si       1.11586500      -2.22584931      -2.87403615       0.00000000
