10
Lattice="16.28999089631971 0.0 0.0 0.0 16.28999089631971 0.0 0.0 0.0 34.450931932916035" Properties=species:S:1:pos:R:3:initial_magmoms:R:1 pbc="T T T"
Si      -1.35848609      -1.35635427       1.35695407       0.00000000
Si      -1.35695483       1.35806472      -1.35695407       0.00000000
Si       1.35764565      -1.35703845      -1.35750528       0.00000000
Si       1.35766194       1.35834165       1.35726412       0.00000000
Si       2.71299483      -0.00144981       2.71511391       0.00000000
Si       2.71377675       0.00161271      -2.71463160       0.00000000
Si      -2.71213622      -0.00232947       2.71631970       0.00000000
Si       0.00171816       2.71529485      -2.71342582       0.00000000
Si       2.71468899      -2.71450044       0.00020671       0.00000000
Si      -2.71461230       0.00105885      -2.71494166       0.00000000
