10
Lattice="10.86 0.0 0.0 0.0 10.86 0.0 0.0 0.0 10.86" Properties=species:S:1:pos:R:3:initial_magmoms:R:1 pbc="T T T"
Si       1.58825328       1.11764604       1.35945480       0.00000000
Si      -1.12674672      -1.59735396       1.35945480       0.00000000
Si      -0.72221172       1.31375592      -1.91856018       0.00000000
Si       1.58825328      -1.59735396      -1.35554520       0.00000000
Si      -2.42478822       2.30454630      -0.19034322       0.00000000
Si      -2.51234154      -0.19406820      -2.66201406       0.00000000
Si       0.23075328       2.47514604       2.71695480       0.00000000
Si      -2.48424672      -0.23985396       2.71695480       0.00000000
Si      -2.48424672      -2.95485396       0.00195480       0.00000000
Si       2.86563906       2.62730550      -0.04039920       0.00000000
