10
Lattice="10.86 0.0 0.0 0.0 10.86 0.0 0.0 0.0 10.86" Properties=species:S:1:pos:R:3:initial_magmoms:R:1 pbc="T T T"
Si      -1.52982648       1.71707460       0.79487598       0.00000000
Si      -1.20931530      -0.74701596      -1.99127874       0.00000000
Si       0.21261708      -2.11207452       1.57952184       0.00000000
Si       1.33411842       1.76366400      -2.04213612       0.00000000
Si      -2.90691792       0.40681560       2.14253682       0.00000000
Si      -2.90691792      -2.30818440      -0.57246318       0.00000000
Si      -0.19191792       3.12181560       2.14253682       0.00000000
Si      -1.48995942      -1.12128414       3.30773880       0.00000000
Si       1.04637186       1.60784472       3.46208112       0.00000000
Si      -0.19191792      -2.30818440      -3.28746318       0.00000000
