10
Lattice="10.86 0.0 0.0 0.0 10.86 0.0 0.0 0.0 10.86" Properties=species:S:1:pos:R:3:initial_magmoms:R:1 pbc="T T T"
Si       1.18896366      -1.35684840      -1.24532706       0.00000000
Si       1.18896366       1.35815160       1.46967294       0.00000000
Si      -1.52603634       1.35815160      -1.24532706       0.00000000
Si      -1.33411842      -1.76366400       2.04213612       0.00000000
Si      -2.54343372      -2.51067996       0.05085738       0.00000000
Si       2.54646366       0.00065160      -2.60282706       0.00000000
Si       2.81178432      -2.41280964      -0.23698692       0.00000000
Si       2.54646366       2.71565160       0.11217294       0.00000000
Si      -0.16853634      -2.71434840      -2.60282706       0.00000000
Si      -0.16853634       2.71565160      -2.60282706       0.00000000
