10
Lattice="10.86 0.0 0.0 0.0 10.86 0.0 0.0 0.0 10.86" Properties=species:S:1:pos:R:3:initial_magmoms:R:1 pbc="T T T"
Si       1.43761422       1.20534054       1.39985400       0.00000000
Si      -1.27738578      -1.50965946       1.39985400       0.00000000
Si       1.43761422      -1.50965946      -1.31514600       0.00000000
Si       0.12631266       2.34357714      -2.77389378       0.00000000
Si      -2.75409600       2.40636966       0.00439830       0.00000000
Si       0.08011422       2.56284054       2.75735400       0.00000000
Si       2.79511422       2.56284054       0.04235400       0.00000000
Si      -2.63488578      -0.15215946       2.75735400       0.00000000
Si       2.79511422      -0.15215946      -2.67264600       0.00000000
Si      -2.86563906      -2.62730550       0.04039920       0.00000000
