10
Lattice="16.28999089631971 0.0 0.0 0.0 16.28999089631971 0.0 0.0 0.0 34.26581377546328" Properties=species:S:1:pos:R:3:initial_magmoms:R:1 pbc="T T T"
Si       1.80915111       0.85967217       1.25431936       0.00000000
Si      -0.77333843      -1.84616199       1.28090964       0.00000000
Si      -1.42085127       1.93877064      -0.10081008       0.00000000
Si       2.97206163       0.90725526      -0.90691380       0.00000000
Si      -1.99240551      -0.29380644       2.69284357       0.00000000
Si       1.50174252       1.15279443      -2.79472133       0.00000000
Si      -0.27782595       2.68957578      -2.20678817       0.00000000
Si      -1.59005061      -0.78007923      -3.18062314       0.00000000
Si      -3.30518303       1.02789900       1.17290031       0.00000000
Si       0.74132532       2.44019313       2.70009422       0.00000000
