10
Lattice="16.28999089631971 0.0 0.0 0.0 16.28999089631971 0.0 0.0 0.0 34.26581377546328" Properties=species:S:1:pos:R:3:initial_magmoms:R:1 pbc="T T T"
Si       1.34091135       1.35280305       1.34609898       0.00000000
Si      -1.33258390      -1.35880917       1.36354029       0.00000000
Si       1.35509994      -1.35383095      -1.35291788       0.00000000
Si      -1.35847849       1.35749457      -1.35336334       0.00000000
Si      -2.60447273       0.07744266       2.67235804       0.00000000
Si       2.53959471       0.05509278       2.83851307       0.00000000
Si      -0.01019754       2.64772773       2.73951908       0.00000000
Si       2.71283886       0.00110772      -2.71039312       0.00000000
Si      -0.00179190      -2.71411559      -2.71032459       0.00000000
Si      -0.00193851       2.71549413      -2.71042738       0.00000000
