10
Lattice="16.28999089631971 0.0 0.0 0.0 16.28999089631971 0.0 0.0 0.0 34.26581377546328" Properties=species:S:1:pos:R:3:initial_magmoms:R:1 pbc="T T T"
Si       1.21984407      -1.43774432       1.41498701       0.00000000
Si      -1.48884084       1.29279884       1.40971007       0.00000000
Si      -0.87029325      -0.80376000      -2.14908249       0.00000000
Si       1.91713752       0.79385243      -1.62104601       0.00000000
Si       2.68610697       2.49882898      -0.13411990       0.00000000
Si       1.14976449      -1.38427614      -3.24750803       0.00000000
Si      -2.70959715       2.65744472      -0.09904882       0.00000000
Si       2.57799024      -0.06463709       2.79155174       0.00000000
Si       2.66732460      -2.73772902      -0.01903810       0.00000000
Si      -0.13887225       2.65071694       2.78887901       0.00000000
