10
Lattice="16.28999089631971 0.0 0.0 0.0 16.28999089631971 0.0 0.0 0.0 34.26581377546328" Properties=species:S:1:pos:R:3:initial_magmoms:R:1 pbc="T T T"
Si       1.35259128       1.35427567      -1.39458513       0.00000000
Si      -1.35786924      -1.36640784      -1.39307744       0.00000000
Si       1.49279931      -1.29293942       1.54977509       0.00000000
Si      -1.53168354       1.40488870       1.43563560       0.00000000
Si       2.69272071       2.71703191      -0.02042244       0.00000000
Si      -2.69895978      -2.72539912      -0.01096507       0.00000000
Si       2.71050939      -2.71876909      -0.01476857       0.00000000
Si      -2.73036690       2.70259897      -0.05677849       0.00000000
Si      -0.00172674       2.70709501      -2.75668626       0.00000000
Si       2.71559187      -0.00674243      -2.75425338       0.00000000
