10
Lattice="16.28999089631971 0.0 0.0 0.0 16.28999089631971 0.0 0.0 0.0 34.26581377546328" Properties=species:S:1:pos:R:3:initial_magmoms:R:1 pbc="T T T"
Si       1.71851355       1.50226869      -0.47427339       0.00000000
Si      -0.03010392      -1.79618657      -1.48984415       0.00000000
Si       0.18961560      -0.98789306       2.15340200       0.00000000
Si      -1.84422348       1.52106735       0.13881089       0.00000000
Si       1.06976430       3.27411570       1.00553087       0.00000000
Si      -2.29232880      -2.56689905      -1.32060520       0.00000000
Si      -1.97327286      -0.77076365       3.12764817       0.00000000
Si      -3.06784683       1.27660332      -1.87235364       0.00000000
Si      -2.60534115       1.39159443       2.41320555       0.00000000
Si      -0.51785910      -1.14180098      -3.65664409       0.00000000
