10
Lattice="16.28999089631971 0.0 0.0 0.0 16.28999089631971 0.0 0.0 0.0 34.26581377546328" Properties=species:S:1:pos:R:3:initial_magmoms:R:1 pbc="T T T"
Si       1.35588186      -1.35661491       1.35884587       0.00000000
Si      -1.36008468       1.35824391       1.36004517       0.00000000
Si      -1.34996859      -1.35791811      -1.37916894       0.00000000
Si       1.36458072       1.34473950      -1.39292324       0.00000000
Si       2.71502172       2.71287144      -0.00294686       0.00000000
Si       2.71357191       0.00017919       2.71745188       0.00000000
Si      -0.00136836      -2.71443039       2.71731482       0.00000000
Si      -2.71502172      -2.71713779       0.00181609       0.00000000
Si       2.71686249      -2.71535404       0.00267273       0.00000000
Si      -0.00216657       2.71591767       2.71810293       0.00000000
