10
Lattice="16.28999089631971 0.0 0.0 0.0 16.28999089631971 0.0 0.0 0.0 34.26581377546328" Properties=species:S:1:pos:R:3:initial_magmoms:R:1 pbc="T T T"
Si       1.88279820       0.90863991      -1.27890368       0.00000000
Si      -0.96070275      -1.84060710      -1.30981146       0.00000000
Si       0.21165597      -0.91290789       2.28590798       0.00000000
Si      -1.88864631       1.90449648      -0.09680098       0.00000000
Si      -2.15938611      -0.54289683      -2.80222555       0.00000000
Si       0.56837439       2.18276226      -2.78529823       0.00000000
Si       2.65204458       2.60237637       0.23081465       0.00000000
Si      -2.52363051      -2.89628055       0.25994061       0.00000000
Si      -3.51049500       0.75202785      -1.40880545       0.00000000
Si      -0.79180803       3.56575068      -1.44711466       0.00000000
