10
Lattice="16.28999089631971 0.0 0.0 0.0 16.28999089631971 0.0 0.0 0.0 34.26581377546328" Properties=species:S:1:pos:R:3:initial_magmoms:R:1 pbc="T T T"
Si      -2.09165229       0.94947894      -0.44549009       0.00000000
Si       1.05648795       2.02668777       0.53598616       0.00000000
Si       0.32816205      -1.80911853       1.48213434       0.00000000
Si       0.82815102      -1.13083551      -1.94636784       0.00000000
Si       2.96564337      -1.64851542      -1.12707178       0.00000000
Si       2.62257597      -2.12242410       1.19169714       0.00000000
Si      -0.70946208      -3.53103669       0.28060291       0.00000000
Si      -1.95418098       1.98804789      -2.52206810       0.00000000
Si      -0.54284796       3.27953538       1.78127506       0.00000000
Si      -3.70954903      -0.73464642      -0.32466877       0.00000000
