10
Lattice="16.28999089631971 0.0 0.0 0.0 16.28999089631971 0.0 0.0 0.0 34.26581377546328" Properties=species:S:1:pos:R:3:initial_magmoms:R:1 pbc="T T T"
Si       1.31706279      -1.25615448       1.53118245       0.00000000
Si       2.07073593       0.74370366      -1.07831252       0.00000000
Si      -1.40292738       1.44430398       1.49468249       0.00000000
Si      -0.73308258      -2.04968925      -1.29686039       0.00000000
Si       1.41700194       0.16389369      -3.33218233       0.00000000
Si      -2.62793538      -2.59877628       0.10822178       0.00000000
Si       2.70764235      -2.60354925       0.21099529       0.00000000
Si      -1.86895170       2.63813292      -2.09011442       0.00000000
Si      -0.03430674      -2.61838944       2.88807517       0.00000000
Si       2.67612120       0.09764226       2.88701293       0.00000000
