10
Lattice="16.28999089631971 0.0 0.0 0.0 16.28999089631971 0.0 0.0 0.0 34.26581377546328" Properties=species:S:1:pos:R:3:initial_magmoms:R:1 pbc="T T T"
Si      -2.26729107      -0.69949260       0.09364852       0.00000000
Si       0.04948902       1.84904532      -1.52284215       0.00000000
Si       0.47811150       1.37526696       2.02260932       0.00000000
Si       1.69554465      -1.63159011      -0.83091218       0.00000000
Si       2.29762305      -0.24211827       2.27216742       0.00000000
Si      -2.16725418       2.32222095      -0.99350356       0.00000000
Si       3.39486858      -0.47429964       0.20741109       0.00000000
Si      -1.97737794      -2.96987877       0.32072820       0.00000000
Si      -1.41674130       0.82617993       3.42769149       0.00000000
Si       0.00087966      -3.36243519       1.81883041       0.00000000
