10
Lattice="16.28999089631971 0.0 0.0 0.0 16.28999089631971 0.0 0.0 0.0 34.26581377546328" Properties=species:S:1:pos:R:3:initial_magmoms:R:1 pbc="T T T"
Si      -1.35671265       1.35824391      -1.35840041       0.00000000
Si       1.35853713      -1.35581670      -1.35953119       0.00000000
Si      -1.35423657      -1.35573525       1.38708092       0.00000000
Si       1.35425286       1.36189287       1.38170118       0.00000000
Si      -2.71340901      -2.71285515      -0.00030839       0.00000000
Si      -2.71412577       2.71425412       0.00339232       0.00000000
Si       2.71396287      -2.71451673      -0.00154196       0.00000000
Si       0.00052128      -2.71383255      -2.71673230       0.00000000
Si      -2.71438641       0.00144981      -2.71638964       0.00000000
Si       0.00089595       2.71619773      -2.71642391       0.00000000
