10
Lattice="16.28999089631971 0.0 0.0 0.0 16.28999089631971 0.0 0.0 0.0 34.26581377546328" Properties=species:S:1:pos:R:3:initial_magmoms:R:1 pbc="T T T"
Si       1.34035749      -1.83995550       0.53101761       0.00000000
Si      -0.57658455       0.65037825      -2.22049451       0.00000000
Si       0.98531694       1.74040731       1.31765834       0.00000000
Si      -1.94026932      -0.89309925       1.10270877       0.00000000
Si       0.81849105      -1.75749552       2.82861024       0.00000000
Si       0.94556934       0.56914002       3.34581872       0.00000000
Si      -2.86572051       0.90508869       2.22837565       0.00000000
Si      -2.45868228      -0.75135996      -2.73629809       0.00000000
Si      -3.28225581      -1.70054568      -0.67209005       0.00000000
Si      -0.50963265       3.57639410       1.23555740       0.00000000
