10
Lattice="16.28999089631971 0.0 0.0 0.0 16.28999089631971 0.0 0.0 0.0 34.26581377546328" Properties=species:S:1:pos:R:3:initial_magmoms:R:1 pbc="T T T"
Si      -1.35480672       1.35565445      -1.35798922       0.00000000
Si       1.35580041       1.35664651       1.35750950       0.00000000
Si       1.35355239      -1.35889553      -1.35942839       0.00000000
Si      -1.35829278      -1.35762491       1.35675565       0.00000000
Si       2.71262709       2.71317182       0.00013706       0.00000000
Si      -0.00091224       2.71388858       2.71443649       0.00000000
Si       2.71402803      -0.00144094       2.71471061       0.00000000
Si       0.00755856       2.70773096      -2.72134105       0.00000000
Si       0.01470987      -2.70475904      -2.72439071       0.00000000
Si      -2.71578735       2.71439357      -0.00181609       0.00000000
