10
Lattice="16.28999089631971 0.0 0.0 0.0 16.28999089631971 0.0 0.0 0.0 34.26581377546328" Properties=species:S:1:pos:R:3:initial_magmoms:R:1 pbc="T T T"
Si       1.35627282       1.35723882      -1.35881160       0.00000000
Si      -1.35843939      -1.35772180      -1.35864028       0.00000000
Si       1.35933534      -1.35971231       1.35692698       0.00000000
Si      -1.36300059       1.36101810       1.35966825       0.00000000
Si       2.71251306      -2.71613174      -0.00209022       0.00000000
Si       2.71298547      -0.00000326      -2.71573859       0.00000000
Si       2.71511946       2.71385373      -0.00167903       0.00000000
Si      -0.00110772      -2.71427468      -2.71649244       0.00000000
Si      -0.00091224       2.71453791      -2.71645817       0.00000000
Si      -2.71731861       2.71383744      -0.00243287       0.00000000
