10
Lattice="16.28999089631971 0.0 0.0 0.0 16.28999089631971 0.0 0.0 0.0 34.26581377546328" Properties=species:S:1:pos:R:3:initial_magmoms:R:1 pbc="T T T"
Si      -1.27021275       1.44243063      -1.37481375       0.00000000
Si       1.47398436      -1.27553795      -1.38101586       0.00000000
Si       1.53782487       1.41314121       1.20502655       0.00000000
Si      -0.49907673      -1.84511454       1.52239669       0.00000000
Si      -2.47013415      -2.56754069       0.19538378       0.00000000
Si      -0.23281668      -0.79640181       3.68577005       0.00000000
Si      -2.61034218       0.07967439      -2.74897645       0.00000000
Si       0.11199375      -2.64105602      -2.75171771       0.00000000
Si       1.43278695       0.94778478       3.47054636       0.00000000
Si      -2.65111605       2.87953443       0.11215207       0.00000000
