10
Lattice="16.28999089631971 0.0 0.0 0.0 16.28999089631971 0.0 0.0 0.0 34.26581377546328" Properties=species:S:1:pos:R:3:initial_magmoms:R:1 pbc="T T T"
Si       1.06945479      -1.56152845       1.49474416       0.00000000
Si      -0.26626005      -1.04871273      -2.16337336       0.00000000
Si       1.66560363       1.74418659      -0.21522370       0.00000000
Si      -1.94118156       1.41281541       1.05131002       0.00000000
Si       0.06090831      -0.64649960       3.41822243       0.00000000
Si      -0.99062748      -3.39764507      -1.27852676       0.00000000
Si       1.77064155       2.20954302      -2.48074351       0.00000000
Si       0.23281668       0.79640181      -3.68577005       0.00000000
Si      -0.08522928      -3.71966579       0.90311029       0.00000000
Si      -2.13734574       0.20313630       3.17298186       0.00000000
