10
Lattice="16.28999089631971 0.0 0.0 0.0 16.28999089631971 0.0 0.0 0.0 34.26581377546328" Properties=species:S:1:pos:R:3:initial_magmoms:R:1 pbc="T T T"
Si       1.75137048       0.98018559      -1.12532422       0.00000000
Si      -1.53318222       1.75342302      -0.39775779       0.00000000
Si      -0.50627691      -2.11729112      -0.93809571       0.00000000
Si       0.13615182      -0.49847400       2.31551366       0.00000000
Si      -2.70453096      -1.26765522      -1.18333627       0.00000000
Si      -3.35328021       0.50419179       0.29646799       0.00000000
Si       2.40469722      -0.08122194       2.66269508       0.00000000
Si       0.09132174      -3.56033330       0.83365345       0.00000000
Si       0.74570733       2.02989690      -2.99599884       0.00000000
Si      -0.52663941       3.61406682       0.56689394       0.00000000
