10
Lattice="16.28999089631971 0.0 0.0 0.0 16.28999089631971 0.0 0.0 0.0 34.26581377546328" Properties=species:S:1:pos:R:3:initial_magmoms:R:1 pbc="T T T"
Si       0.81793719      -0.94066835      -1.95143919       0.00000000
Si       0.86276727       2.12119095      -0.46957897       0.00000000
Si      -2.31772491       0.35443782       0.12918219       0.00000000
Si       0.72936846      -1.62540221       1.57372691       0.00000000
Si       3.13913187      -0.98123045      -1.40065019       0.00000000
Si      -1.40577813      -2.45151698       2.25609671       0.00000000
Si      -2.90072772      -0.61553019       2.17399577       0.00000000
Si       0.22033854       0.50237383      -3.72318834       0.00000000
Si       1.50094431      -3.51183308       0.30205332       0.00000000
Si       0.72661545       2.61966495      -2.78509263       0.00000000
