10
Lattice="16.28999089631971 0.0 0.0 0.0 16.28999089631971 0.0 0.0 0.0 34.26581377546328" Properties=species:S:1:pos:R:3:initial_magmoms:R:1 pbc="T T T"
Si       2.31904440      -0.13224222      -0.28553719       0.00000000
Si       0.04015485      -0.40871610       2.31270386       0.00000000
Si      -0.73647090       2.23163226      -0.59975487       0.00000000
Si      -0.93502971      -2.22011523      -0.59454647       0.00000000
Si      -2.96100072       2.07935334       0.25877557       0.00000000
Si       1.04669766       1.45192770       3.27735559       0.00000000
Si       2.67175548      -1.88874405      -1.86108018       0.00000000
Si       1.57333707      -2.16213912       2.71046165       0.00000000
Si      -1.77994314      -1.65794733       3.00692964       0.00000000
Si       3.32470755      -1.18195353       1.58513743       0.00000000
