10
Lattice="16.28999089631971 0.0 0.0 0.0 16.28999089631971 0.0 0.0 0.0 34.26581377546328" Properties=species:S:1:pos:R:3:initial_magmoms:R:1 pbc="T T T"
Si      -1.35830907      -1.35659862       1.35589901       0.00000000
Si       1.35845568       1.35793440       1.35586474       0.00000000
Si      -1.35793440       1.35723393      -1.35747524       0.00000000
Si       1.35775521      -1.35799956      -1.35798922       0.00000000
Si      -0.00149868       2.71376739       2.71440222       0.00000000
Si       2.71158453       0.00213399       2.71758894       0.00000000
Si      -2.71494027       2.71445157      -0.00078811       0.00000000
Si      -2.71477737      -0.00058644       2.71467635       0.00000000
Si       2.71456560       2.71526607      -0.00044546       0.00000000
Si      -2.71549413      -2.71500543      -0.00023986       0.00000000
