10
Lattice="16.28999089631971 0.0 0.0 0.0 16.28999089631971 0.0 0.0 0.0 34.26581377546328" Properties=species:S:1:pos:R:3:initial_magmoms:R:1 pbc="T T T"
Si      -1.21393080       1.30064247      -1.61727878       0.00000000
Si      -1.85694597      -0.98127702       1.38567602       0.00000000
Si       0.96172902       1.79711280       1.48926163       0.00000000
Si       1.48919922      -1.39302306      -1.58619967       0.00000000
Si      -2.53091214       2.62005102      -0.16399628       0.00000000
Si      -2.62619235      -2.67501348      -0.12404232       0.00000000
Si       2.64150495       2.69641854      -0.08915970       0.00000000
Si      -3.59025084       0.79485426       1.18624887       0.00000000
Si      -2.58106905      -0.04869081      -2.98832329       0.00000000
Si       0.13220964       2.66566302      -2.98859742       0.00000000
