10
Lattice="16.28999089631971 0.0 0.0 0.0 16.28999089631971 0.0 0.0 0.0 34.26581377546328" Properties=species:S:1:pos:R:3:initial_magmoms:R:1 pbc="T T T"
Si       1.35317772      -1.35641943      -1.35901720       0.00000000
Si      -1.35933534       1.35971231      -1.35692698       0.00000000
Si       1.36199061       1.36551807       1.37070185       0.00000000
Si      -1.36441782      -1.35231435       1.38255783       0.00000000
Si      -0.11199375       2.64105602       2.75171771       0.00000000
Si       2.71344159      -2.71298547      -0.00212448       0.00000000
Si       2.70912474       2.71745612      -0.00215875       0.00000000
Si       2.71187775       0.00162160      -2.71546446       0.00000000
Si      -0.00259011      -2.71332756      -2.71573859       0.00000000
Si      -0.00306252       2.71695113      -2.71573859       0.00000000
