10
Lattice="16.28999089631971 0.0 0.0 0.0 16.28999089631971 0.0 0.0 0.0 34.26581377546328" Properties=species:S:1:pos:R:3:initial_magmoms:R:1 pbc="T T T"
Si       0.90539820      -0.32202072       2.18163705       0.00000000
Si      -2.34442422       0.08412156      -0.68768100       0.00000000
Si       0.72436743       2.34893233      -0.88484660       0.00000000
Si       2.55339234       0.41816430      -1.00093925       0.00000000
Si       1.39351176      -1.14430734      -2.40319993       0.00000000
Si      -1.24668999       1.62650618      -2.21185952       0.00000000
Si       0.12344562      -2.98864485      -0.62192487       0.00000000
Si      -3.38309091       0.95671170       1.26913792       0.00000000
Si      -0.91836504      -1.12539465       3.46619460       0.00000000
Si       0.99062748       3.39764507       1.27852676       0.00000000
