10
Lattice="16.28999089631971 0.0 0.0 0.0 16.28999089631971 0.0 0.0 0.0 34.26581377546328" Properties=species:S:1:pos:R:3:initial_magmoms:R:1 pbc="T T T"
Si      -1.35703845       1.35517650       1.36062769       0.00000000
Si       1.35783583      -1.35957097       1.35956545       0.00000000
Si       1.35048541       1.35988431      -1.38329797       0.00000000
Si      -1.34395758      -1.36439731      -1.38827679       0.00000000
Si      -2.60333748       0.11354945      -2.77326064       0.00000000
Si      -2.71518462       2.71487022       0.00466015       0.00000000
Si       2.71889127       2.71237785      -0.00373498       0.00000000
Si       0.00164529       2.71408830       2.71776027       0.00000000
Si      -2.71386513      -0.00134881       2.71800013       0.00000000
Si      -2.71611315      -2.71689085       0.00106224       0.00000000
