10
Lattice="16.28999089631971 0.0 0.0 0.0 16.28999089631971 0.0 0.0 0.0 34.26581377546328" Properties=species:S:1:pos:R:3:initial_magmoms:R:1 pbc="T T T"
Si      -1.35580041      -1.35664651      -1.35750950       0.00000000
Si       1.35682668       1.35652532      -1.35737244       0.00000000
Si      -1.35671265       1.35724208       1.35692698       0.00000000
Si       1.35822762      -1.35808745       1.35720111       0.00000000
Si      -2.71060713      -0.00099206      -2.71549873       0.00000000
Si       0.00213399       2.71385699       2.71405956       0.00000000
Si      -2.71409319      -2.71427142      -0.00075385       0.00000000
Si      -2.71389771       2.71454116      -0.00071958       0.00000000
Si      -2.71298547       0.00000326       2.71573859       0.00000000
Si       2.71552671       0.00101650       2.71340851       0.00000000
