10
Lattice="16.28999089631971 0.0 0.0 0.0 16.28999089631971 0.0 0.0 0.0 34.26581377546328" Properties=species:S:1:pos:R:3:initial_magmoms:R:1 pbc="T T T"
Si       1.35557879      -1.35674466       1.35836615       0.00000000
Si       1.35800704       1.35648622      -1.35624167       0.00000000
Si      -1.35729909      -1.35910395      -1.35620740       0.00000000
Si      -1.36005210       1.35673057       1.35709831       0.00000000
Si      -0.00260640       2.70221941       2.71121550       0.00000000
Si      -2.71339272       2.71284049       0.00065105       0.00000000
Si      -0.00001629       2.71442062      -2.71364837       0.00000000
Si      -2.71552671      -0.00101650      -2.71340851       0.00000000
Si       2.71613011       2.71301968       0.00034266       0.00000000
Si       0.00003258      -2.71593952      -2.71323718       0.00000000
