10
Lattice="16.28999089631971 0.0 0.0 0.0 16.28999089631971 0.0 0.0 0.0 34.26581377546328" Properties=species:S:1:pos:R:3:initial_magmoms:R:1 pbc="T T T"
Si      -1.41333669      -1.76562490      -0.55342747       0.00000000
Si      -1.42115589       1.75404856       0.72482516       0.00000000
Si       0.96127290      -0.63708724       2.08322558       0.00000000
Si       1.84974972       0.13336949      -1.49364766       0.00000000
Si       3.24885221       1.17972832       0.09680098       0.00000000
Si       2.59779466       1.02339319       2.36177253       0.00000000
Si      -0.87798213      -3.52979932       0.96852377       0.00000000
Si      -0.68968602      -2.69777128      -2.57315846       0.00000000
Si      -0.62481924      -0.07401850       3.75049821       0.00000000
Si      -0.96148467       2.13499021       3.02067024       0.00000000
