10
Lattice="16.28999089631971 0.0 0.0 0.0 16.28999089631971 0.0 0.0 0.0 34.26581377546328" Properties=species:S:1:pos:R:3:initial_magmoms:R:1 pbc="T T T"
Si      -1.35640314      -1.35785295      -1.35668712       0.00000000
Si       1.35757602      -1.35729909       1.35689272       0.00000000
Si       1.35858600       1.35664749      -1.35696125       0.00000000
Si      -1.35775521       1.35799956       1.35798922       0.00000000
Si      -0.00221544      -2.71357191      -2.71292879       0.00000000
Si       2.71456560       0.00143352      -2.71323718       0.00000000
Si       2.71461447      -2.71435383       0.00017133       0.00000000
Si       2.71520091       2.71458189      -0.00006853       0.00000000
Si       0.00070047       2.71593396       2.71385397       0.00000000
Si       2.71461447       0.00043983       2.71532740       0.00000000
