10
Lattice="16.28999089631971 0.0 0.0 0.0 16.28999089631971 0.0 0.0 0.0 34.26581377546328" Properties=species:S:1:pos:R:3:initial_magmoms:R:1 pbc="T T T"
Si       1.35334062      -1.35610992       1.35644726       0.00000000
Si       1.35633798       1.35863487      -1.35757803       0.00000000
Si      -1.35884664      -1.35661491      -1.35713258       0.00000000
Si      -1.35624024       1.35749457       1.36508225       0.00000000
Si       2.71078632      -0.01062108       2.71056445       0.00000000
Si       2.71339272      -2.71284049      -0.00065105       0.00000000
Si       2.71337643       0.00158013      -2.71429942       0.00000000
Si      -0.00213399      -2.71385699      -2.71405956       0.00000000
Si      -2.71511946      -2.71385373       0.00167903       0.00000000
Si       2.71337643       2.71637379       0.00085665       0.00000000
