10
Lattice="16.28999089631971 0.0 0.0 0.0 16.28999089631971 0.0 0.0 0.0 34.26581377546328" Properties=species:S:1:pos:R:3:initial_magmoms:R:1 pbc="T T T"
Si      -1.96392240      -1.15457004      -0.71855452       0.00000000
Si      -0.45366021       2.30643594      -0.50990986       0.00000000
Si       1.22050269      -1.20352149      -1.83695704       0.00000000
Si       0.64822797       0.41655159       2.82614310       0.00000000
Si      -1.47685140      -3.18669867       0.59396395       0.00000000
Si      -2.27853117       2.78616015       0.99549098       0.00000000
Si      -1.14746760       2.22252615       3.01998492       0.00000000
Si      -2.56113009      -0.60613461      -3.03009334       0.00000000
Si      -0.81858879       2.81978271      -2.79033531       0.00000000
Si       0.45947574      -3.50410932      -2.00640158       0.00000000
