10
Lattice="16.28999089631971 0.0 0.0 0.0 16.28999089631971 0.0 0.0 0.0 34.26581377546328" Properties=species:S:1:pos:R:3:initial_magmoms:R:1 pbc="T T T"
Si      -1.52946810       1.41535665      -1.16466140       0.00000000
Si      -0.57026403      -1.80545328       1.46859933       0.00000000
Si       1.27708943       1.56364452       1.37440256       0.00000000
Si       1.54537107      -1.40260158      -1.28644217       0.00000000
Si       0.15540660       2.56231926      -2.51524920       0.00000000
Si       3.43827233       0.88358589       0.73157553       0.00000000
Si      -2.65768092      -0.11129328      -2.52107439       0.00000000
Si       0.49887703       0.94672593       3.62549645       0.00000000
Si      -2.48969844       2.98491444       0.46029293       0.00000000
Si       0.30330972      -2.93581638      -2.59759000       0.00000000
