10
Lattice="16.28999089631971 0.0 0.0 0.0 16.28999089631971 0.0 0.0 0.0 34.26581377546328" Properties=species:S:1:pos:R:3:initial_magmoms:R:1 pbc="T T T"
Si       1.02125970      -1.81889253       1.00152176       0.00000000
Si      -0.93302604      -0.62494956      -2.08346544       0.00000000
Si       1.39397507       1.86243570       0.43819147       0.00000000
Si      -1.83585042       0.94363083       1.18422719       0.00000000
Si      -0.55343646      -3.47760549       0.06726383       0.00000000
Si      -2.94778953       1.83506850      -0.76854837       0.00000000
Si       0.01643661       3.64206933      -0.19315650       0.00000000
Si       3.13840601      -2.04760413      -0.10399680       0.00000000
Si      -0.91836504      -2.96425872      -2.21316162       0.00000000
Si       0.32394294       0.21766698      -3.85332998       0.00000000
