10
Lattice="16.28999089631971 0.0 0.0 0.0 16.28999089631971 0.0 0.0 0.0 34.26581377546328" Properties=species:S:1:pos:R:3:initial_magmoms:R:1 pbc="T T T"
Si      -1.35733167       1.35683557       1.35702978       0.00000000
Si       1.35614167       1.35670087      -1.35860601       0.00000000
Si       1.35765611      -1.35754344       1.35689272       0.00000000
Si      -1.35682668      -1.35765747      -1.35870881       0.00000000
Si      -0.00070047      -2.71451673       2.71357984       0.00000000
Si       0.00299736      -2.71326240      -2.71505327       0.00000000
Si      -0.00003258       2.71593952       2.71323718       0.00000000
Si      -2.71603170      -0.00120546       2.71347704       0.00000000
Si      -2.71511946      -2.71445157      -0.00037692       0.00000000
Si       2.71557462       2.71403033      -0.00037692       0.00000000
