10
Lattice="16.28999089631971 0.0 0.0 0.0 16.28999089631971 0.0 0.0 0.0 34.26581377546328" Properties=species:S:1:pos:R:3:initial_magmoms:R:1 pbc="T T T"
Si       1.25648028      -1.38186441      -1.38488790       0.00000000
Si       2.02437459       0.78203633       1.02033371       0.00000000
Si      -1.45754775       1.36090800      -1.37135290       0.00000000
Si      -1.60158393      -1.13943663       1.41596701       0.00000000
Si       2.49813666      -2.72896596       0.16252285       0.00000000
Si       2.60521727      -0.00062918      -2.74294566       0.00000000
Si      -3.43060884       0.79133140       1.53205966       0.00000000
Si      -0.11041362       2.71284605      -2.74421350       0.00000000
Si      -2.76146451      -2.70190827       0.01370633       0.00000000
Si      -0.10609677      -2.71759554      -2.74417923       0.00000000
