10
Lattice="16.28999089631971 0.0 0.0 0.0 16.28999089631971 0.0 0.0 0.0 34.26581377546328" Properties=species:S:1:pos:R:3:initial_magmoms:R:1 pbc="T T T"
Si      -1.81027838       1.51889589      -0.26203703       0.00000000
Si       1.84655295       0.95195502       1.21418101       0.00000000
Si       0.99600318      -0.57371751      -2.11986196       0.00000000
Si      -1.11253044      -1.80887418       1.18682659       0.00000000
Si       0.38781603       2.29200300       2.62244849       0.00000000
Si      -2.35314656      -0.42569028       2.63919763       0.00000000
Si       1.28591631      -2.84410368      -1.89278229       0.00000000
Si      -2.32929097       0.82020150      -2.69453425       0.00000000
Si      -1.13986343       3.43544697       1.20366825       0.00000000
Si      -0.21214467       0.59148990      -3.80005281       0.00000000
