10
Lattice="10.86 0.0 0.0 0.0 10.86 0.0 0.0 0.0 10.86" Properties=species:S:1:pos:R:3:initial_magmoms:R:1 pbc="T T T"
Si      -1.34324082      -1.37175918      -1.20351606       0.00000000
Si       1.37175918       1.34324082      -1.20351606       0.00000000
Si       1.37175918      -1.37175918       1.51148394       0.00000000
Si      -1.38290154       1.38290154       1.57395066       0.00000000
Si      -2.56462158       2.56462158      -0.01791900       0.00000000
Si      -2.70074082      -0.01425918      -2.56101606       0.00000000
Si       0.01425918       2.70074082      -2.56101606       0.00000000
Si       2.72925918      -0.01425918      -2.56101606       0.00000000
Si       0.01425918      -2.72925918      -2.56101606       0.00000000
Si       2.72925918       2.70074082       0.15398394       0.00000000
