10
Lattice="10.86 0.0 0.0 0.0 10.86 0.0 0.0 0.0 10.86" Properties=species:S:1:pos:R:3:initial_magmoms:R:1 pbc="T T T"
Si       1.22138076       1.49361924      -1.18559706       0.00000000
Si      -1.49361924      -1.22138076      -1.18559706       0.00000000
Si       1.18172004      -1.18172004       1.59186966       0.00000000
Si      -1.49361924       1.49361924       1.52940294       0.00000000
Si       2.57888076       0.13611924      -2.54309706       0.00000000
Si      -0.13611924      -2.57888076      -2.54309706       0.00000000
Si       2.56462158      -2.56462158       0.01791900       0.00000000
Si      -0.13611924       2.85111924      -2.54309706       0.00000000
Si      -2.85111924       0.13611924      -2.54309706       0.00000000
Si       2.57888076       2.85111924       0.17190294       0.00000000
