10
Lattice="10.86 0.0 0.0 0.0 10.86 0.0 0.0 0.0 10.86" Properties=species:S:1:pos:R:3:initial_magmoms:R:1 pbc="T T T"
Si      -1.30242894       1.37251938      -1.32250908       0.00000000
Si       1.41257106      -1.34248062      -1.32250908       0.00000000
Si       1.41257106       1.37251938       1.39249092       0.00000000
Si      -2.58714522      -0.12348906       2.63256174       0.00000000
Si      -2.76569448       0.09524220      -2.49755022       0.00000000
Si      -2.65992894       2.73001938       0.03499092       0.00000000
Si       0.05507106       2.73001938      -2.68000908       0.00000000
Si       0.27463854      -2.52492828      -2.87643390       0.00000000
Si       2.77007106       0.01501938      -2.68000908       0.00000000
Si       2.77007106      -2.69998062       0.03499092       0.00000000
