10
Lattice="16.290000149 0.0 0.0 0.0 16.290000149 0.0 0.0 0.0 29.1751946751" Properties=species:S:1:pos:R:3:initial_magmoms:R:1 pbc="T T T"
Si      -1.34372953      -1.37828062       1.31329221       0.00000000
Si       1.30228777      -1.34433226      -1.43512783       0.00000000
Si       1.22829859       1.43427587       1.42657949       0.00000000
Si      -1.40033728       1.34070611      -1.36052685       0.00000000
Si       0.20312001      -2.70163136       2.49850532       0.00000000
Si       2.64238463       2.71743266       0.04501733       0.00000000
Si      -2.70860348      -0.00734679       2.65605137       0.00000000
Si      -0.29232405       2.75090862       2.62474639       0.00000000
Si       2.65984751       0.01009980      -2.76668371       0.00000000
Si      -0.06535548       2.70550838      -2.72925194       0.00000000
