10
Lattice="16.290000149 0.0 0.0 0.0 16.290000149 0.0 0.0 0.0 29.1751946751" Properties=species:S:1:pos:R:3:initial_magmoms:R:1 pbc="T T T"
Si       1.61240050      -0.16650009      -1.68034534       0.00000000
Si      -0.43508961       2.28966052      -0.30438481       0.00000000
Si       0.25013295      -0.51363999       2.29749086       0.00000000
Si      -1.89846920      -1.30087054      -0.63070936       0.00000000
H        1.32895450      -2.22575159       1.50800746       0.00000000
H       -2.77956273      -0.44914788      -1.52174898       0.00000000
Si      -1.49604103       1.02879496       2.74781903       0.00000000
Si       0.04316850      -0.94253941      -3.26890551       0.00000000
Si      -2.33015420       2.27377777       1.03490251       0.00000000
Si      -0.86657914      -2.78454747      -2.10466937       0.00000000
