10
Lattice="16.290000149 0.0 0.0 0.0 16.290000149 0.0 0.0 0.0 29.1751946751" Properties=species:S:1:pos:R:3:initial_magmoms:R:1 pbc="T T T"
Si       1.32600601       1.38289069      -1.37580882       0.00000000
Si       1.34926813      -1.36233271       1.37588176       0.00000000
Si      -1.36278883       1.34762284       1.39116373       0.00000000
Si      -1.38978136      -1.37728693      -1.34249075       0.00000000
Si       2.52641612      -0.08830809      -2.80580181       0.00000000
Si      -2.64688067      -2.74703160       0.08345273       0.00000000
Si       2.72155403       0.04368978       2.68791652       0.00000000
Si      -2.84232810       0.03912858      -2.56058430       0.00000000
Si      -0.07493400       2.80675074      -2.59935813       0.00000000
Si       2.63480978       2.82923094      -0.00546451       0.00000000
