10
Lattice="16.290000149 0.0 0.0 0.0 16.290000149 0.0 0.0 0.0 29.1751946751" Properties=species:S:1:pos:R:3:initial_magmoms:R:1 pbc="T T T"
Si      -1.40094001       1.42386004      -1.22354931       0.00000000
Si      -1.32600601      -1.38289069       1.37580882       0.00000000
Si       1.20041011      -1.47119878      -1.42999299       0.00000000
Si       1.30880377       1.44634024       1.37034431       0.00000000
H        3.22221090       1.73227862      -0.50837777       0.00000000
Si      -0.00521280       2.65715966      -2.64709459       0.00000000
Si       2.67144599      -2.68135031       0.02494479       0.00000000
Si       2.53133570      -0.13796001      -2.82853512       0.00000000
Si      -2.90628264       0.14160897      -2.51224684       0.00000000
Si       2.73667116       0.07949520       2.70423712       0.00000000
