10
Lattice="16.290000149 0.0 0.0 0.0 16.290000149 0.0 0.0 0.0 29.1751946751" Properties=species:S:1:pos:R:3:initial_magmoms:R:1 pbc="T T T"
H       -1.01955853      -1.12089862       0.23932412       0.00000000
Si       1.50656437      -1.07569387      -1.41896477       0.00000000
Si       1.17174297      -0.16197147       2.02184099       0.00000000
Si      -1.31075857       1.61236792      -1.14813144       0.00000000
H       -1.52910973       0.42702606       2.04451012       0.00000000
H        1.30995873       2.27737460      -1.52632948       0.00000000
Si       0.02215440      -2.22319406       2.62375443       0.00000000
Si      -1.98583247      -0.85587661       2.70509488       0.00000000
Si      -2.57698028      -0.06299343      -2.32736363       0.00000000
Si       0.07970697      -2.51296058      -2.57999164       0.00000000
