10
Lattice="16.290000149 0.0 0.0 0.0 16.290000149 0.0 0.0 0.0 29.1751946751" Properties=species:S:1:pos:R:3:initial_magmoms:R:1 pbc="T T T"
Si       1.69054364      -1.66182437      -0.25251131       0.00000000
Si      -1.85626181      -0.83103436      -1.25960985       0.00000000
Si      -0.61936210       0.35003952       2.32742198       0.00000000
Si       0.66948643       1.85031596      -1.43276464       0.00000000
H        2.22690818       0.79241077       1.13392312       0.00000000
H       -1.02987010       2.50686812       0.10365947       0.00000000
H       -2.60214833      -0.27251541       1.24668524       0.00000000
H        0.59921137      -1.62290755       2.55145830       0.00000000
H       -0.50966523       2.36498222      -2.23805836       0.00000000
H       -3.25198902       0.15074766       1.19892545       0.00000000
