10
Lattice="16.290000149 0.0 0.0 0.0 16.290000149 0.0 0.0 0.0 29.1751946751" Properties=species:S:1:pos:R:3:initial_magmoms:R:1 pbc="T T T"
Si      -0.93402951       0.81478345       1.99459136       0.00000000
Si      -1.87554265      -0.89124871      -1.11256687       0.00000000
Si       1.36067765       1.37773328      -1.34348854       0.00000000
Si       1.83851222      -1.17670164       0.93276015       0.00000000
H        2.63880735       1.42103210      -0.51797641       0.00000000
H       -2.91305276       0.22971018      -1.07980313       0.00000000
Si       0.52112851      -2.60253278       2.27937043       0.00000000
Si       1.95154853      -0.16211808      -3.09668434       0.00000000
Si       0.39867658       2.79299220       2.48123361       0.00000000
Si      -0.65024109      -1.01104277       3.56517961       0.00000000
