10
Lattice="16.290000149 0.0 0.0 0.0 16.290000149 0.0 0.0 0.0 29.1751946751" Properties=species:S:1:pos:R:3:initial_magmoms:R:1 pbc="T T T"
Si      -1.43384581       1.31963662      -1.28198723       0.00000000
Si      -1.37982817      -1.31813794       1.36291922       0.00000000
Si       1.33586146       1.40424688       1.33785773       0.00000000
Si       1.34570062      -1.27928629      -1.46065612       0.00000000
Si      -0.07793136       2.66030363      -2.59651355       0.00000000
Si       2.68522733      -2.61563645      -0.03886136       0.00000000
Si      -0.02448387      -2.68868081       2.70188560       0.00000000
Si      -2.75361276      -2.64450233      -0.00037928       0.00000000
Si       2.69827562       0.06475275       2.70226488       0.00000000
Si      -2.74822077       0.06129927       2.68519739       0.00000000
