10
Lattice="16.290000149 0.0 0.0 0.0 16.290000149 0.0 0.0 0.0 29.1751946751" Properties=species:S:1:pos:R:3:initial_magmoms:R:1 pbc="T T T"
Si      -1.47738898       1.80778277      -0.11284965       0.00000000
Si       1.13437045      -1.10925127      -1.75237889       0.00000000
Si      -1.65975554      -1.51933573       0.73544831       0.00000000
Si       1.85626181       0.83103436       1.25960985       0.00000000
H       -0.74588653       0.55851895       2.50629510       0.00000000
H       -1.39572721       0.98178202       2.45853530       0.00000000
Si       2.47616147      -2.52095897      -0.37755619       0.00000000
H        1.34659657       3.19601658      -0.97844850       0.00000000
Si       2.52574823       2.68135031      -0.17315478       0.00000000
H        0.82639171       3.33790248       1.36326932       0.00000000
