10
Lattice="16.290000149 0.0 0.0 0.0 16.290000149 0.0 0.0 0.0 29.1751946751" Properties=species:S:1:pos:R:3:initial_magmoms:R:1 pbc="T T T"
Si       0.90466516       0.07099182      -1.21902716       0.00000000
H       -1.28330992      -1.75488914      -0.43605246       0.00000000
H        1.89630263       0.42512013       1.23904134       0.00000000
Si      -1.81426619      -2.01347660       0.95073207       0.00000000
Si       1.17509545       2.94766575       0.24950626       0.00000000
Si       0.01860318       1.49400478      -2.81100083       0.00000000
Si       1.24870996      -2.04796253      -2.15403380       0.00000000
Si       2.78467779       1.42027624      -0.82799202       0.00000000
Si      -2.65781126      -0.14125059       2.07476479       0.00000000
H       -2.87749821      -0.91598671      -1.60673632       0.00000000
