10
Lattice="16.290000149 0.0 0.0 0.0 16.290000149 0.0 0.0 0.0 29.1751946751" Properties=species:S:1:pos:R:3:initial_magmoms:R:1 pbc="T T T"
Si      -1.81306073      -1.32167287       0.63088441       0.00000000
Si       1.80229304      -1.47994651      -0.16209738       0.00000000
Si      -1.04839183       0.79979014      -1.95144125       0.00000000
Si       0.63125380       1.75443302       1.59716686       0.00000000
H       -0.03464883      -1.16554951       3.12375892       0.00000000
Si      -2.58260033       2.06387786      -0.75940114       0.00000000
Si       3.42300144       0.20683413      -0.08953867       0.00000000
Si      -3.51215661       0.31183947       0.54671397       0.00000000
Si      -1.39160584      -1.74169424       2.85015394       0.00000000
Si       2.86145256       1.24444198       1.91949441       0.00000000
