10
Lattice="16.290000149 0.0 0.0 0.0 16.290000149 0.0 0.0 0.0 29.1751946751" Properties=species:S:1:pos:R:3:initial_magmoms:R:1 pbc="T T T"
Si       1.53766198      -1.27177660      -1.19778762       0.00000000
Si       1.39561318       1.32123304       1.36492356       0.00000000
Si      -1.21645576      -1.43518159       1.44238953       0.00000000
Si      -1.47103588       1.21015153      -1.45493778       0.00000000
H        0.35440524      -1.80910226      -2.24800710       0.00000000
Si      -2.67144599       2.68135031      -0.02494479       0.00000000
Si       2.85442016       2.50012406      -0.05222360       0.00000000
Si      -2.64818387      -0.06387309       2.72674579       0.00000000
Si      -0.14011029       2.54339030      -2.85347992       0.00000000
Si       0.06522516       2.76084552       2.67929233       0.00000000
