10
Lattice="16.290000149 0.0 0.0 0.0 16.290000149 0.0 0.0 0.0 29.1751946751" Properties=species:S:1:pos:R:3:initial_magmoms:R:1 pbc="T T T"
Si       1.35273790       1.39833361      -1.31976619       0.00000000
Si      -1.35136954       1.36951660       1.35833871       0.00000000
Si       1.37709145      -1.34708527       1.35892222       0.00000000
Si      -1.36247932      -1.36736632      -1.36356983       0.00000000
Si       2.73448830       0.04127886      -2.64336600       0.00000000
Si      -2.70801053      -2.69645114       0.01765099       0.00000000
Si       2.69055416       2.72279207       0.08457889       0.00000000
Si      -2.69768593       0.02163312       2.72674287       0.00000000
Si       0.02233359      -2.69138495       2.73450347       0.00000000
Si      -2.71702867       2.71709057      -0.01400409       0.00000000
