10
Lattice="16.290000149 0.0 0.0 0.0 16.290000149 0.0 0.0 0.0 29.1751946751" Properties=species:S:1:pos:R:3:initial_magmoms:R:1 pbc="T T T"
Si       1.43461144      -1.22359078      -1.28542990       0.00000000
Si      -1.21814992       1.53525106      -1.24338845       0.00000000
Si       1.48278097       1.01542087       1.47069239       0.00000000
Si      -1.12282084      -1.44037810       1.55115758       0.00000000
H        2.07479216      -2.06496929      -0.20352616       0.00000000
Si      -1.99630694       0.34137324       2.83536212       0.00000000
Si      -0.12460221       1.80576281       2.99433776       0.00000000
Si       2.46255932      -0.84020563       2.37092220       0.00000000
Si      -0.00428427      -2.55513539      -2.49552945       0.00000000
Si       0.69709798      -2.32573961       2.70004757       0.00000000
