10
Lattice="16.290000149 0.0 0.0 0.0 16.290000149 0.0 0.0 0.0 29.1751946751" Properties=species:S:1:pos:R:3:initial_magmoms:R:1 pbc="T T T"
Si      -1.32090724      -1.32636439       1.36524040       0.00000000
Si       1.26375052      -1.42693885      -1.32646890       0.00000000
Si      -1.13942035       1.50182398      -1.38312713       0.00000000
Si       1.50672727       1.38419389       1.16769224       0.00000000
Si       1.94479796       0.33568803      -2.83456389       0.00000000
H       -2.32267709       0.96449833      -2.43334661       0.00000000
Si       0.53014828       2.28519380      -2.83129626       0.00000000
Si       0.10648773       2.73426024       2.53596802       0.00000000
Si       0.12936410      -2.71103069       2.59153510       0.00000000
Si      -2.57880476       0.07460820       2.72977884       0.00000000
