10
Lattice="16.290000149 0.0 0.0 0.0 16.290000149 0.0 0.0 0.0 29.1751946751" Properties=species:S:1:pos:R:3:initial_magmoms:R:1 pbc="T T T"
Si      -1.69054364       1.66182437       0.25251131       0.00000000
Si       0.35295543      -0.24040782       2.36184871       0.00000000
Si       1.63563004       1.06217317      -1.43288134       0.00000000
Si      -1.07064397      -1.69016897      -1.38465474       0.00000000
H        1.88383752      -1.64600678       0.26275180       0.00000000
H        0.53636454       2.45423513       1.38643443       0.00000000
H       -1.09133227       0.03891681       2.80396961       0.00000000
Si      -2.41243499      -0.27846126      -2.75947744       0.00000000
Si       0.34424028       2.47088351      -2.79670499       0.00000000
Si      -3.54680544       0.83079001      -1.00709855       0.00000000
