10
Lattice="16.290000149 0.0 0.0 0.0 16.290000149 0.0 0.0 0.0 29.1751946751" Properties=species:S:1:pos:R:3:initial_magmoms:R:1 pbc="T T T"
Si       1.35905842      -1.33934752       1.38054687       0.00000000
Si      -1.50672727      -1.38419389      -1.16769224       0.00000000
Si      -1.40023954       1.35006634       1.36827578       0.00000000
Si       1.48750507       1.19925352      -1.43521827       0.00000000
Si      -2.64614762       0.11763009      -2.55081936       0.00000000
Si      -0.24297676      -2.81113275      -2.49416114       0.00000000
Si       2.66087378       2.66704769       0.01478599       0.00000000
Si       0.13103350       2.60692130      -2.74830626       0.00000000
Si      -0.01481738      -2.70050735       2.74199858       0.00000000
Si       2.67975389       0.00133578       2.77461645       0.00000000
