10
Lattice="16.290000149 0.0 0.0 0.0 16.290000149 0.0 0.0 0.0 29.1751946751" Properties=species:S:1:pos:R:3:initial_magmoms:R:1 pbc="T T T"
Si      -1.26375052       1.42693885       1.32646890       0.00000000
Si       1.63347488      -1.18439704       1.21291962       0.00000000
Si       0.68104744       1.76262689      -1.50809499       0.00000000
Si      -1.33270609      -1.97820875      -0.48664225       0.00000000
Si       0.29781215      -2.59101738       2.56593795       0.00000000
Si       0.16527834       0.85007737      -3.60021902       0.00000000
Si      -2.58465776       0.10057446       2.69170930       0.00000000
Si      -0.39867658      -2.79299220      -2.48123361       0.00000000
Si       0.24297676       2.81113275       2.49416114       0.00000000
Si      -2.40317087       2.92876284      -0.05665823       0.00000000
