10
Lattice="16.290000149 0.0 0.0 0.0 16.290000149 0.0 0.0 0.0 29.1751946751" Properties=species:S:1:pos:R:3:initial_magmoms:R:1 pbc="T T T"
Si      -2.19746075      -0.18741645      -0.65609178       0.00000000
Si       1.31314832      -0.26839404      -1.91100443       0.00000000
Si       0.51576910       0.91254952       2.09212403       0.00000000
Si       0.79672273      -2.26533629      -0.22450312       0.00000000
Si       0.76902973       2.11657601      -1.17882374       0.00000000
H        2.07485243      -2.22203747       0.60100901       0.00000000
H       -2.26732856      -1.26488593      -1.71523887       0.00000000
H        1.96610039       2.48580515      -0.29119762       0.00000000
H        3.37096629       0.45410004       0.16994551       0.00000000
Si      -2.64770006       1.94737178      -1.54392213       0.00000000
