10
Lattice="16.290000149 0.0 0.0 0.0 16.290000149 0.0 0.0 0.0 29.1751946751" Properties=species:S:1:pos:R:3:initial_magmoms:R:1 pbc="T T T"
Si       2.23019876      -0.50999103       0.32232755       0.00000000
Si      -1.05630877       0.66373280       2.06615811       0.00000000
Si      -0.06646320       2.06239547      -1.29260700       0.00000000
Si      -0.63125380      -1.75443302      -1.59716686       0.00000000
Si      -2.37690650       1.95848644      -0.93544427       0.00000000
H       -0.66590263      -2.91998253       1.52659206       0.00000000
Si       2.79174765      -1.54759888      -1.68670553       0.00000000
Si      -3.13064481       1.36524211       1.21640139       0.00000000
Si       3.46674009       1.28014477      -0.52255691       0.00000000
Si       1.17103924      -3.23437953      -1.75926424       0.00000000
