10
Lattice="16.290000149 0.0 0.0 0.0 16.290000149 0.0 0.0 0.0 29.1751946751" Properties=species:S:1:pos:R:3:initial_magmoms:R:1 pbc="T T T"
Si       1.42039027       1.30943908       1.31256283       0.00000000
Si       1.37811772      -1.34658028      -1.32178219       0.00000000
Si      -1.34846992      -1.35723394       1.35440006       0.00000000
Si      -1.36081774       1.39489642      -1.30515233       0.00000000
Si       0.05170446       2.67719636       2.56931352       0.00000000
Si       0.00728163      -2.70788672      -2.64834912       0.00000000
Si       2.73004113       0.04554684      -2.64796984       0.00000000
Si      -2.71645526       0.04209336      -2.66503733       0.00000000
Si       0.01298313       2.73828387      -2.64689036       0.00000000
Si       2.73375525      -2.67605606       0.06596512       0.00000000
