10
Lattice="16.290000149 0.0 0.0 0.0 16.290000149 0.0 0.0 0.0 29.1751946751" Properties=species:S:1:pos:R:3:initial_magmoms:R:1 pbc="T T T"
Si       1.36041212       1.35070165      -1.35259120       0.00000000
Si       1.37095175      -1.34498386       1.35404996       0.00000000
Si      -1.33890755       1.36376623       1.37181765       0.00000000
Si      -1.34826754      -1.37839465      -1.35107409       0.00000000
Si      -2.68819049      -0.04870710       2.67408164       0.00000000
Si       2.67102408      -2.70148475      -0.06249327       0.00000000
Si      -0.02943929       2.69982317      -2.68198812       0.00000000
Si      -2.69164397      -0.02015073      -2.71912814       0.00000000
Si       2.67843603      -0.01247814      -2.74313933       0.00000000
Si       2.73209529       0.03560994       2.70156468       0.00000000
