10
Lattice="16.290000149 0.0 0.0 0.0 16.290000149 0.0 0.0 0.0 29.1751946751" Properties=species:S:1:pos:R:3:initial_magmoms:R:1 pbc="T T T"
Si       1.34667802      -1.34495128       1.36464056       0.00000000
Si      -1.35412255       1.32910111       1.40075945       0.00000000
Si      -1.42226362      -1.46002384      -1.22419992       0.00000000
Si       1.45981207       1.43714877      -1.21487845       0.00000000
Si      -0.99696430       0.92641231      -3.42063403       0.00000000
Si       0.04313592       2.78030718      -2.46956353       0.00000000
Si      -2.82859563      -0.09601326      -2.47771800       0.00000000
Si       2.68973966      -2.64826532      -0.05925482       0.00000000
Si      -0.08537589      -2.61407261      -2.78172352       0.00000000
Si      -0.00847080      -2.71608059       2.71017136       0.00000000
