10
Lattice="16.290000149 0.0 0.0 0.0 16.290000149 0.0 0.0 0.0 29.1751946751" Properties=species:S:1:pos:R:3:initial_magmoms:R:1 pbc="T T T"
Si       0.88109353      -0.85172266       0.89103962       0.00000000
H       -1.89630263      -0.42512013      -1.23904134       0.00000000
Si       0.88837516       0.99515611      -2.06703337       0.00000000
Si      -0.99163747      -0.35412831      -2.45806850       0.00000000
Si      -0.72120718       2.52254562      -0.98953508       0.00000000
Si      -1.45108063       2.17441365       1.27157168       0.00000000
Si       1.91298359      -2.33539958      -0.58292039       0.00000000
Si      -0.51463368      -2.08502228       2.31458489       0.00000000
Si       2.77956273       0.44914788       1.52174898       0.00000000
Si       2.82273123      -0.49339152      -1.74715653       0.00000000
