10
Lattice="16.290000149 0.0 0.0 0.0 16.290000149 0.0 0.0 0.0 29.1751946751" Properties=species:S:1:pos:R:3:initial_magmoms:R:1 pbc="T T T"
Si      -1.17174297       0.16197147      -2.02184099       0.00000000
Si       0.23197286       1.84186145       1.45111583       0.00000000
Si       2.31700491      -0.18267606      -0.58674234       0.00000000
Si      -1.14958857      -2.06122259       0.60191344       0.00000000
H       -2.70085270       0.58899754       0.02266913       0.00000000
H       -2.19130150      -0.95892715      -1.78251687       0.00000000
Si      -3.15757544      -0.69390514       0.68325388       0.00000000
Si       1.67286573       0.65940292       2.89610487       0.00000000
Si       1.89454005      -1.99431956      -2.07234325       0.00000000
Si       0.33482141      -0.91372240      -3.44080576       0.00000000
