10
Lattice="16.290000149 0.0 0.0 0.0 16.290000149 0.0 0.0 0.0 29.1751946751" Properties=species:S:1:pos:R:3:initial_magmoms:R:1 pbc="T T T"
Si       1.34084620       1.29549484      -1.36962951       0.00000000
Si      -1.53420850       1.26408772       1.19204010       0.00000000
Si       1.04839183      -0.79979014       1.95144125       0.00000000
Si      -1.41027418      -1.38645820      -1.31145418       0.00000000
Si      -0.76466890      -2.12146301       2.58232566       0.00000000
Si      -2.46376478      -0.48795066       2.49815522       0.00000000
Si       2.59230917       2.61484150       0.10348442       0.00000000
Si      -0.08610894       2.65975140      -2.66296589       0.00000000
Si       2.70572015      -0.07543899      -2.71238867       0.00000000
Si      -0.07330500      -2.72479574      -2.71317640       0.00000000
