10
Lattice="16.290000149 0.0 0.0 0.0 16.290000149 0.0 0.0 0.0 29.1751946751" Properties=species:S:1:pos:R:3:initial_magmoms:R:1 pbc="T T T"
Si       1.45880698       1.17889102      -1.41714715       0.00000000
Si      -1.39561318      -1.32123304      -1.36492356       0.00000000
Si      -1.33038802       1.43961247       1.31436878       0.00000000
Si       1.38795688      -1.36057339       1.35638398       0.00000000
Si       0.14204880      -2.59300964      -2.56271117       0.00000000
Si       0.05639598       2.35154297      -2.87678214       0.00000000
H       -0.84484828       3.09239589      -1.89824611       0.00000000
Si      -2.67151115       0.02091636       2.67385699       0.00000000
Si       2.67951932       2.66769929      -0.01824908       0.00000000
Si      -2.61206894      -2.75641464       0.07746598       0.00000000
