10
Lattice="16.290000149 0.0 0.0 0.0 16.290000149 0.0 0.0 0.0 29.1751946751" Properties=species:S:1:pos:R:3:initial_magmoms:R:1 pbc="T T T"
Si       1.34724817       1.33265233       1.38857589       0.00000000
Si       1.33038802      -1.43961247      -1.31436878       0.00000000
Si      -1.34112313      -1.41869611       1.35948822       0.00000000
Si      -1.42786738       1.36684504      -1.33389282       0.00000000
H        0.48553974       1.65278342      -3.21261489       0.00000000
Si      -2.76475512       2.52089381       0.22363078       0.00000000
Si       2.65005722       2.68646537      -0.04555415       0.00000000
Si      -0.06522516      -2.76084552      -2.67929233       0.00000000
Si      -2.73667116      -0.07949520      -2.70423712       0.00000000
Si       2.69563664      -0.05201397       2.75050315       0.00000000
