10
Lattice="16.290000149 0.0 0.0 0.0 16.290000149 0.0 0.0 0.0 29.1751946751" Properties=species:S:1:pos:R:3:initial_magmoms:R:1 pbc="T T T"
H        0.84147625       0.93788047       0.80888227       0.00000000
Si      -1.29609757       1.29215539      -1.42552919       0.00000000
Si       1.43119054      -1.44402706      -1.11927717       0.00000000
Si      -1.82861768      -0.82508851       1.16791222       0.00000000
H        1.62181612       0.16159680       2.45235016       0.00000000
H        2.28250595       1.85666906       1.35463346       0.00000000
Si      -2.37615716       2.71314839       0.07378407       0.00000000
Si       2.77959531      -0.05520681      -2.46722951       0.00000000
Si       0.07154568      -2.75274939      -2.50819149       0.00000000
Si      -1.20216943      -1.22663701       3.31794901       0.00000000
