10
Lattice="16.290000149 0.0 0.0 0.0 16.290000149 0.0 0.0 0.0 29.1751946751" Properties=species:S:1:pos:R:3:initial_magmoms:R:1 pbc="T T T"
Si      -1.35663121      -1.34959393      -1.35419584       0.00000000
Si      -1.34358292       1.33079527       1.38693040       0.00000000
Si       1.34060185       1.35343837      -1.38497567       0.00000000
Si       1.34573320      -1.38069154       1.35381656       0.00000000
Si       0.06841800      -2.70964604      -2.62436711       0.00000000
Si      -2.70599708       2.67028940       0.02252325       0.00000000
Si       2.70521842       2.68291415      -0.00574751       0.00000000
Si      -2.69550632      -0.06133185       2.71311805       0.00000000
Si       2.69489382      -0.03517011      -2.71483939       0.00000000
Si       2.69822024      -0.02888217       2.71530619       0.00000000
