10
Lattice="16.290000149 0.0 0.0 0.0 16.290000149 0.0 0.0 0.0 29.1751946751" Properties=species:S:1:pos:R:3:initial_magmoms:R:1 pbc="T T T"
Si       1.29824785       1.28343649       1.50559759       0.00000000
Si      -1.33514470      -1.36511228       1.40799198       0.00000000
Si       1.48266694      -1.29926809      -1.33750762       0.00000000
Si      -1.35615880       1.38625083      -1.39956326       0.00000000
Si      -0.00428427      -2.55200169      -2.71244702       0.00000000
Si      -2.60811047       2.72920007       0.08669876       0.00000000
Si       2.69693984      -2.71449444       0.11222239       0.00000000
Si       2.28612233       3.07114347       0.35317448       0.00000000
Si       2.36876150       2.37880217      -1.87631512       0.00000000
Si       3.09874899       0.18878269      -2.27659879       0.00000000
