10
Lattice="16.290000149 0.0 0.0 0.0 16.290000149 0.0 0.0 0.0 29.1751946751" Properties=species:S:1:pos:R:3:initial_magmoms:R:1 pbc="T T T"
H       -1.03751011       1.12095889       0.03276374       0.00000000
Si      -0.83240272      -1.93233937       1.01325451       0.00000000
Si       0.26077032      -0.73663706      -2.20946667       0.00000000
Si       1.87554265       0.89124871       1.11256687       0.00000000
Si       2.52501681      -1.25851980      -2.08783528       0.00000000
Si      -2.40163472      -2.70837868      -0.57530566       0.00000000
Si       0.94151314       1.70603217       3.10715823       0.00000000
H        0.17216901       3.26943235      -1.72165741       0.00000000
Si      -2.87989284       0.52382124       2.38921504       0.00000000
Si      -1.30508965       2.21028912       2.83011058       0.00000000
