10
Lattice="16.290000149 0.0 0.0 0.0 16.290000149 0.0 0.0 0.0 29.1751946751" Properties=species:S:1:pos:R:3:initial_magmoms:R:1 pbc="T T T"
Si      -1.29243395      -1.41662728      -1.29940482       0.00000000
Si       1.41077754      -1.20300022       1.40647778       0.00000000
Si       1.47126231       1.39259953      -1.19323629       0.00000000
Si      -1.39494692       1.26027586       1.42570424       0.00000000
H       -0.09182999       0.65441818       2.57593629       0.00000000
Si       2.11686760       0.65759473       2.70054354       0.00000000
Si       0.41777171       2.29110707       2.61637311       0.00000000
Si      -2.61205428      -0.03005505      -2.62244155       0.00000000
Si       0.11783046       2.74486503      -2.57158918       0.00000000
Si       0.11646699      -2.73316881      -2.60811653       0.00000000
