10
Lattice="16.290000149 0.0 0.0 0.0 16.290000149 0.0 0.0 0.0 29.1751946751" Properties=species:S:1:pos:R:3:initial_magmoms:R:1 pbc="T T T"
Si      -1.32788588       1.35565381      -1.37000879       0.00000000
Si       1.31186629       1.42806286       1.32286168       0.00000000
Si      -1.34306816      -1.36472734       1.36522406       0.00000000
Si       1.37819917      -1.34589610      -1.35652985       0.00000000
Si       2.66628206       0.07198551       2.62865587       0.00000000
Si      -2.65136042       2.68913693       0.03442673       0.00000000
Si       2.68275125       2.68444541      -0.10821080       0.00000000
Si      -2.67209759      -0.00148239      -2.72423380       0.00000000
Si      -2.61611163      -0.00444717       2.78859428       0.00000000
Si       0.02226843      -2.71182890      -2.69564211       0.00000000
