10
Lattice="16.290000149 0.0 0.0 0.0 16.290000149 0.0 0.0 0.0 29.1751946751" Properties=species:S:1:pos:R:3:initial_magmoms:R:1 pbc="T T T"
Si       1.46164307      -1.22018617      -1.33251867       0.00000000
Si      -1.15144237      -1.63975141       1.18267487       0.00000000
Si      -1.76924063       1.16035300      -1.02714190       0.00000000
Si       1.45983325       1.38140830       1.35154089       0.00000000
H       -2.05268663      -0.89889850       2.16121090       0.00000000
Si      -3.38164113       1.32685309       0.65320343       0.00000000
Si       2.64241721       0.30369447      -2.65077066       0.00000000
Si       2.90253594      -2.40264470       0.11247038       0.00000000
Si      -0.93683791       3.09269237      -2.04039641       0.00000000
Si       0.25096863      -2.81240337       2.64230986       0.00000000
