10
Lattice="16.290000149 0.0 0.0 0.0 16.290000149 0.0 0.0 0.0 29.1751946751" Properties=species:S:1:pos:R:3:initial_magmoms:R:1 pbc="T T T"
Si      -0.08263917       0.69234130       2.22948960       0.00000000
Si       0.72998749      -2.19001948      -0.40028367       0.00000000
Si       1.93901501       1.02837142      -0.90078414       0.00000000
Si      -2.20346687       0.38092536      -0.80576053       0.00000000
H        2.45190566      -0.25370046       1.49484945       0.00000000
Si       2.63047664      -1.64150748       0.88479613       0.00000000
Si      -2.15456429       2.67527414      -0.13846547       0.00000000
Si       1.45986094      -1.84188751      -2.66139043       0.00000000
Si       1.01048500       2.07132239      -2.73453265       0.00000000
Si       0.23912091       0.02656899      -3.61594445       0.00000000
