10
Lattice="16.290000149 0.0 0.0 0.0 16.290000149 0.0 0.0 0.0 29.1751946751" Properties=species:S:1:pos:R:3:initial_magmoms:R:1 pbc="T T T"
Si       1.35995437      -1.35174421      -1.35308718       0.00000000
Si       1.37378458       1.36490653       1.33094321       0.00000000
Si      -1.35459496       1.35115777      -1.36930859       0.00000000
Si      -1.35363385      -1.34728075       1.37438507       0.00000000
Si       0.00187335       2.72373689       2.65304633       0.00000000
Si       2.68348430      -2.71645526       0.03915311       0.00000000
Si      -2.71430498      -2.69322572       0.00726462       0.00000000
Si      -2.72310158       0.04026888       2.68557667       0.00000000
Si      -0.00006516      -2.69511536      -2.71618145       0.00000000
Si       2.71520093       0.02570562      -2.70987961       0.00000000
