10
Lattice="16.290000149 0.0 0.0 0.0 16.290000149 0.0 0.0 0.0 29.1751946751" Properties=species:S:1:pos:R:3:initial_magmoms:R:1 pbc="T T T"
Si       2.30107655       0.06312375      -0.45125274       0.00000000
Si      -0.85862962       2.07980948      -0.79158138       0.00000000
Si      -0.14151123       0.41748012       2.35893119       0.00000000
Si      -0.92118322      -2.08526989      -0.81337525       0.00000000
H       -2.30826044       0.19938960       0.91557596       0.00000000
H       -1.01214658       2.87552712       0.48451246       0.00000000
Si      -3.58639014       0.15609078       0.09006383       0.00000000
Si      -2.99551926      -1.38376058      -1.66313197       0.00000000
Si       3.07244064       2.10787715       0.43015907       0.00000000
Si       2.06195564       0.03655476       3.16469172       0.00000000
