10
Lattice="16.290000149 0.0 0.0 0.0 16.290000149 0.0 0.0 0.0 29.1751946751" Properties=species:S:1:pos:R:3:initial_magmoms:R:1 pbc="T T T"
Si      -1.36322866      -1.34970796       1.34973203       0.00000000
Si      -1.39030264       1.34805616      -1.33269372       0.00000000
Si       1.31919679      -1.36868581      -1.38372113       0.00000000
Si       1.36091548       1.34165093       1.37914063       0.00000000
Si      -0.06462243       2.70273908       2.67819535       0.00000000
Si       0.01312974      -2.70273908       2.69149923       0.00000000
Si       2.69011433      -2.71026506      -0.03261787       0.00000000
Si      -0.04631247       2.70394454      -2.69756767       0.00000000
Si       2.69589728       2.70645320       0.01041554       0.00000000
Si       2.69617421      -0.01257588      -2.71457681       0.00000000
