10
Lattice="16.290000149 0.0 0.0 0.0 16.290000149 0.0 0.0 0.0 29.1751946751" Properties=species:S:1:pos:R:3:initial_magmoms:R:1 pbc="T T T"
Si       1.34631638       1.34788348      -1.36840416       0.00000000
Si       1.35149660      -1.35918874       1.35927232       0.00000000
Si      -1.33009436       1.34946361       1.39110246       0.00000000
Si      -1.36461657      -1.32947578      -1.37922815       0.00000000
Si       2.67750262       2.69319314       0.04583423       0.00000000
Si      -2.70521842      -2.68291415       0.00574751       0.00000000
Si      -2.69878387       2.70620885       0.05061896       0.00000000
Si       2.69226136       0.00327429       2.72423380       0.00000000
Si       2.69768593      -0.02163312      -2.72674287       0.00000000
Si      -2.67781864      -0.00439830       2.74824499       0.00000000
