10
Lattice="16.290000149 0.0 0.0 0.0 16.290000149 0.0 0.0 0.0 29.1751946751" Properties=species:S:1:pos:R:3:initial_magmoms:R:1 pbc="T T T"
H       -1.44428770       0.27932463       0.44212090       0.00000000
Si       0.45023931      -2.13478823       0.88783035       0.00000000
Si      -0.35295543       0.24040782      -2.36184871       0.00000000
Si       1.22512204       1.59234751       1.40901603       0.00000000
H        0.18340911       2.69464295      -0.97541428       0.00000000
H        1.53088209      -1.40559895      -2.09909691       0.00000000
H        0.38037150      -3.21225771      -0.17131674       0.00000000
Si      -0.78286483       2.95966497       1.49035647       0.00000000
Si       3.41672979       0.16920423       0.36509839       0.00000000
Si      -2.66286116       2.25227171       0.21808458       0.00000000
