10
Lattice="16.290000149 0.0 0.0 0.0 16.290000149 0.0 0.0 0.0 29.1751946751" Properties=species:S:1:pos:R:3:initial_magmoms:R:1 pbc="T T T"
Si      -1.36778986      -1.34413678       1.34290504       0.00000000
Si      -1.38254860       1.34578207      -1.33549454       0.00000000
Si       1.35000118      -1.36513459      -1.35518779       0.00000000
Si       1.36656811       1.36195804       1.35171594       0.00000000
Si       0.00454491       2.70565499      -2.63915894       0.00000000
Si       0.00061902      -2.70192458       2.66915104       0.00000000
Si       2.71324613      -0.00296478      -2.68432214       0.00000000
Si      -2.70855461      -2.70659981      -0.02205645       0.00000000
Si      -2.70032816       2.71619462       0.05315720       0.00000000
Si      -2.68581377       0.01904301       2.73345316       0.00000000
