10
Lattice="16.290000149 0.0 0.0 0.0 16.290000149 0.0 0.0 0.0 29.1751946751" Properties=species:S:1:pos:R:3:initial_magmoms:R:1 pbc="T T T"
Si       1.34543021       1.46245105      -1.23280544       0.00000000
Si       1.38555248      -1.33962445       1.37203647       0.00000000
Si      -1.35985012       1.45837855       1.28706371       0.00000000
Si      -1.22071234      -1.48880827      -1.39889807       0.00000000
Si      -2.67951932      -2.66769929       0.01824908       0.00000000
Si      -2.66265917       0.10456551       2.72119375       0.00000000
Si      -0.01184772       2.70500339      -2.68966703       0.00000000
Si       2.79080934       0.26810082      -2.58933354       0.00000000
Si       0.04002127      -2.66870927       2.75325729       0.00000000
Si       0.03100313       2.74483245       2.72160220       0.00000000
