10
Lattice="16.290000149 0.0 0.0 0.0 16.290000149 0.0 0.0 0.0 29.1751946751" Properties=species:S:1:pos:R:3:initial_magmoms:R:1 pbc="T T T"
H        1.97806214      -0.10094913      -1.05567524       0.00000000
Si       1.02263734      -1.33672483       1.61802712       0.00000000
Si       0.75948868       1.87199795      -1.27971156       0.00000000
Si      -0.77315599      -2.03994785      -1.00826555       0.00000000
Si      -1.07241958       1.10918611       1.86668731       0.00000000
H       -1.22329756       1.24944301      -2.36044830       0.00000000
H       -3.02407563       0.04025259      -1.28315424       0.00000000
H       -1.87313825       1.67270609      -2.40820809       0.00000000
H        2.31834395      -0.78628573       2.53946729       0.00000000
Si      -1.02071512       3.41954796      -0.64906056       0.00000000
