10
Lattice="16.290000149 0.0 0.0 0.0 16.290000149 0.0 0.0 0.0 29.1751946751" Properties=species:S:1:pos:R:3:initial_magmoms:R:1 pbc="T T T"
Si      -1.39333258      -1.34286616      -1.32884259       0.00000000
Si      -1.35894439       1.35549091       1.35337893       0.00000000
Si       1.32996448      -1.36938628       1.37301384       0.00000000
Si       1.35985663       1.34475580      -1.37196353       0.00000000
Si      -0.03720636      -2.73797598      -2.61768599       0.00000000
Si       2.70747947       2.70093089      -0.00971534       0.00000000
Si      -2.70249473       2.71375112      -0.00930689       0.00000000
Si       2.68965821      -2.72687598       0.03381405       0.00000000
Si       2.70335810      -0.02269197       2.71667743       0.00000000
Si      -0.00990432       2.71616204       2.70395704       0.00000000
