10
Lattice="16.290000149 0.0 0.0 0.0 16.290000149 0.0 0.0 0.0 29.1751946751" Properties=species:S:1:pos:R:3:initial_magmoms:R:1 pbc="T T T"
Si       2.07433604      -0.70150931       0.84975672       0.00000000
Si       0.75373831       0.59324434      -2.15184566       0.00000000
Si      -1.30207437      -1.98765043      -0.10371782       0.00000000
Si      -0.59087089       1.53985136       1.75319580       0.00000000
H        0.68725882       1.58315018       2.57870793       0.00000000
H        0.14781546       1.90706054      -2.58273411       0.00000000
Si      -0.07444530       3.53679361       0.06669450       0.00000000
Si       1.29373552      -2.19904576       2.56000663       0.00000000
Si       3.13064481      -1.36524211      -1.21640139       0.00000000
Si      -1.95154853       0.16211808       3.09668434       0.00000000
