10
Lattice="16.290000149 0.0 0.0 0.0 16.290000149 0.0 0.0 0.0 29.1751946751" Properties=species:S:1:pos:R:3:initial_magmoms:R:1 pbc="T T T"
Si      -1.27812970      -0.04329882      -0.82551213       0.00000000
Si       2.30826044      -0.19938960      -0.91557596       0.00000000
Si       2.16674921       0.21809052       1.44335523       0.00000000
Si       1.44963082       1.88041988      -1.70715734       0.00000000
H        1.29611386       2.67613751      -0.43106350       0.00000000
Si       0.64529578      -1.15538618       2.72586761       0.00000000
Si      -2.63880735      -1.42103210       0.51797641       0.00000000
Si      -0.80029513      -2.59773374       1.45073656       0.00000000
Si      -2.07485243       2.22203747      -0.60100901       0.00000000
Si      -0.68725882      -1.58315018      -2.57870793       0.00000000
