10
Lattice="10.86 0.0 0.0 0.0 10.86 0.0 0.0 0.0 10.86" Properties=species:S:1:pos:R:3:initial_magmoms:R:1 pbc="T T T"
Si      -1.46101752      -1.30354752      -1.23125250       0.00000000
Si       1.25398248      -1.30354752       1.48374750       0.00000000
Si      -1.46101752       1.41145248       1.48374750       0.00000000
Si       2.34994110       2.82613038      -0.06915648       0.00000000
Si      -0.10351752      -2.66104752      -2.58875250       0.00000000
Si       2.61148248      -2.66104752       0.12624750       0.00000000
Si      -2.81851752       0.05395248      -2.58875250       0.00000000
Si       2.61148248       0.05395248       2.84124750       0.00000000
Si      -2.81851752      -2.66104752       0.12624750       0.00000000
Si      -0.10351752      -2.66104752       2.84124750       0.00000000
