10
Lattice="10.86 0.0 0.0 0.0 10.86 0.0 0.0 0.0 10.86" Properties=species:S:1:pos:R:3:initial_magmoms:R:1 pbc="T T T"
Si       1.73712216       0.78999984      -0.97758462       0.00000000
Si      -0.97787784       0.78999984       1.73741538       0.00000000
Si      -0.97787784      -1.92500016      -0.97758462       0.00000000
Si       0.37962216       2.14749984      -2.33508462       0.00000000
Si      -2.33537784       2.14749984       0.37991538       0.00000000
Si      -2.33537784      -0.56750016      -2.33508462       0.00000000
Si      -0.97787784       3.50499984      -0.97758462       0.00000000
Si       3.09462216       2.14749984       0.37991538       0.00000000
Si       0.37962216       2.14749984       3.09491538       0.00000000
Si      -0.97787784       0.78999984      -3.69258462       0.00000000
