10
Lattice="10.86 0.0 0.0 0.0 10.86 0.0 0.0 0.0 10.86" Properties=species:S:1:pos:R:3:initial_magmoms:R:1 pbc="T T T"
Si      -1.15770858      -1.30625166       1.45336122       0.00000000
Si       1.55729142      -1.30625166      -1.26163878       0.00000000
Si       1.55729142       1.40874834       1.45336122       0.00000000
Si      -2.56553382       0.06588762      -2.57765358       0.00000000
Si      -2.51520858      -2.66375166       0.09586122       0.00000000
Si      -2.46956400       0.12039396       2.79933876       0.00000000
Si       0.19979142      -2.66375166      -2.61913878       0.00000000
Si       0.19979142      -2.66375166       2.81086122       0.00000000
Si       2.91479142       0.05124834      -2.61913878       0.00000000
Si       2.91479142      -2.66375166       0.09586122       0.00000000
