10
Lattice="10.86 0.0 0.0 0.0 10.86 0.0 0.0 0.0 10.86" Properties=species:S:1:pos:R:3:initial_magmoms:R:1 pbc="T T T"
Si       1.29172098       1.26658008       1.40718450       0.00000000
Si       1.29172098      -1.44841992      -1.30781550       0.00000000
Si      -1.42327902      -1.44841992       1.40718450       0.00000000
Si       0.02447844       2.49457458      -2.59752738       0.00000000
Si      -2.70088200       2.54165268      -0.00155298       0.00000000
Si       2.64922098       2.62408008       0.04968450       0.00000000
Si       2.64922098      -0.09091992      -2.66531550       0.00000000
Si      -0.06577902       2.62408008       2.76468450       0.00000000
Si       2.64922098      -0.09091992       2.76468450       0.00000000
Si       2.64922098      -2.80591992       0.04968450       0.00000000
