10
Lattice="16.28999089631971 0.0 0.0 0.0 16.28999089631971 0.0 0.0 0.0 34.54679606040008" Properties=species:S:1:pos:R:3:initial_magmoms:R:1 pbc="T T T"
Si      -1.33855093      -1.34067112       1.37934033       0.00000000
Si       1.37981187       1.36681551       1.37377830       0.00000000
Si       1.18296351      -1.56459346      -1.34854530       0.00000000
Si      -1.30092917       1.40304773      -1.49187313       0.00000000
Si       2.23765956       0.08231660      -2.63793713       0.00000000
Si       0.65638926       2.10198321      -2.73547699       0.00000000
Si      -2.70123128      -2.69709055       0.02960317       0.00000000
Si      -2.68912781       2.72949030      -0.01250249       0.00000000
Si      -2.69616509       0.00980246       2.73592468       0.00000000
Si       0.01870092      -2.70446992       2.73419734       0.00000000
