10
Lattice="16.28999089631971 0.0 0.0 0.0 16.28999089631971 0.0 0.0 0.0 34.54679606040008" Properties=species:S:1:pos:R:3:initial_magmoms:R:1 pbc="T T T"
Si       0.86763798       2.01285823       0.81565031       0.00000000
Si       1.28976075      -1.49138208       1.28061590       0.00000000
Si      -2.26329676      -0.07685622       0.96067784       0.00000000
Si       0.69550155      -0.75714291      -2.25248691       0.00000000
Si       0.70030710      -3.52730628       0.17681060       0.00000000
Si      -1.15895205      -2.05208388      -2.86317096       0.00000000
Si      -3.65984891       0.50075460      -0.81654853       0.00000000
Si       1.69489305       1.56310925       3.02142993       0.00000000
Si       2.35124973       2.98427003      -0.68171231       0.00000000
Si       0.52377237       1.00916550      -3.82657800       0.00000000
