10
Lattice="16.28999089631971 0.0 0.0 0.0 16.28999089631971 0.0 0.0 0.0 34.54679606040008" Properties=species:S:1:pos:R:3:initial_magmoms:R:1 pbc="T T T"
Si      -1.39655214       0.57761082      -1.77722637       0.00000000
Si      -1.02590577      -2.07267444       0.61444966       0.00000000
Si      -0.64023935       1.45656776       1.81992623       0.00000000
Si       2.26329676       0.07685622      -0.96067784       0.00000000
Si       3.13093474       2.08971445      -0.14502753       0.00000000
Si      -0.58420175       0.01283652       3.75458244       0.00000000
Si      -1.16507124      -3.38626746      -1.34805128       0.00000000
Si       3.55305751      -1.41452586       0.31993806       0.00000000
Si      -0.84431054      -0.58099914      -3.74525480       0.00000000
Si      -1.49028480       2.86354484      -2.19061356       0.00000000
