10
Lattice="16.28999089631971 0.0 0.0 0.0 16.28999089631971 0.0 0.0 0.0 34.54679606040008" Properties=species:S:1:pos:R:3:initial_magmoms:R:1 pbc="T T T"
Si      -0.67649112       1.94732615       1.20889671       0.00000000
Si       1.19330766      -1.28414463       1.67147857       0.00000000
Si       1.99586709      -1.04837553      -0.98589702       0.00000000
Si      -2.30130459      -0.96189355       0.06463709       0.00000000
Si       0.90585432       2.05627367      -1.35043501       0.00000000
Si       3.19990986       1.12420874      -1.15220539       0.00000000
Si      -2.40011973       2.67399047      -0.24379688       0.00000000
Si      -0.61092387      -2.40890397       2.67043428       0.00000000
Si      -1.97273529       0.98160608       2.96225123       0.00000000
Si      -2.66378967      -1.18347681       2.46394797       0.00000000
