10
Lattice="16.28999089631971 0.0 0.0 0.0 16.28999089631971 0.0 0.0 0.0 34.54679606040008" Properties=species:S:1:pos:R:3:initial_magmoms:R:1 pbc="T T T"
Si       0.72252666       1.97820075      -0.97007458       0.00000000
Si       0.88358589       0.26537567       2.13257491       0.00000000
Si       1.57187097      -1.48075988      -0.98796983       0.00000000
Si      -2.41026840      -0.18757823      -0.00445654       0.00000000
Si      -2.23853922      -1.95388664       1.56963456       0.00000000
Si       0.82973115      -1.29221942      -3.20504625       0.00000000
Si       3.07815840       0.86159455       1.59896480       0.00000000
Si      -0.03960099      -3.19839377       1.60501050       0.00000000
Si      -1.22313465      -0.06679226      -3.41153256       0.00000000
Si      -0.53208027       2.09829063      -2.91322930       0.00000000
