10
Lattice="16.28999089631971 0.0 0.0 0.0 16.28999089631971 0.0 0.0 0.0 34.54679606040008" Properties=species:S:1:pos:R:3:initial_magmoms:R:1 pbc="T T T"
Si      -1.82514789      -0.77838507       1.20105458       0.00000000
Si      -0.86607414       1.52449965      -1.55225751       0.00000000
Si       0.69336756      -1.85026707      -1.26213335       0.00000000
Si       1.17608913       0.90114651       1.83802876       0.00000000
Si      -2.09725605      -0.08488719      -2.74018430       0.00000000
Si      -2.86516665       1.38087072       1.56932363       0.00000000
Si      -0.61195014      -2.04094152       2.84835038       0.00000000
Si       2.82722724      -1.26871407      -1.91993926       0.00000000
Si      -0.56123937      -1.73017719      -3.20528808       0.00000000
Si       1.06194510       2.31749685      -2.69292426       0.00000000
