10
Lattice="16.28999089631971 0.0 0.0 0.0 16.28999089631971 0.0 0.0 0.0 34.54679606040008" Properties=species:S:1:pos:R:3:initial_magmoms:R:1 pbc="T T T"
Si      -1.35698958      -1.35782037       1.35699891       0.00000000
Si       1.35780408       1.35764118       1.35710255       0.00000000
Si      -1.35694071       1.35821133      -1.36162818       0.00000000
Si       1.35964485      -1.35715248      -1.36152454       0.00000000
Si      -2.71469592       2.71432125       0.00020728       0.00000000
Si      -0.00016290      -2.71507059       2.71423964       0.00000000
Si       2.71498914       2.71464705       0.00103640       0.00000000
Si      -2.71458189      -0.00034209       2.71506877       0.00000000
Si       2.71547784      -0.00017919       2.71465420       0.00000000
Si       0.00022806       2.71498914       2.71524150       0.00000000
