10
Lattice="16.28999089631971 0.0 0.0 0.0 16.28999089631971 0.0 0.0 0.0 34.54679606040008" Properties=species:S:1:pos:R:3:initial_magmoms:R:1 pbc="T T T"
Si       1.35521397      -1.35747828       1.35730983       0.00000000
Si       1.35659862       1.35646830      -1.35810441       0.00000000
Si      -1.35817875      -1.35814617      -1.35824259       0.00000000
Si      -1.36143675       1.35654975       1.35706800       0.00000000
Si      -2.71468126       2.71415835      -0.00276375       0.00000000
Si       2.71233387      -2.71682991      -0.00134733       0.00000000
Si      -0.00070047       2.71368594      -2.71600153       0.00000000
Si       2.71489140       2.71500543      -0.00266010       0.00000000
Si       2.71419093      -0.00100998      -2.71617426       0.00000000
Si      -2.71576291      -0.00136836      -2.71596698       0.00000000
