10
Lattice="16.28999089631971 0.0 0.0 0.0 16.28999089631971 0.0 0.0 0.0 34.54679606040008" Properties=species:S:1:pos:R:3:initial_magmoms:R:1 pbc="T T T"
Si       1.28998881       1.89781758       0.53944852       0.00000000
Si       1.38880395      -1.73806644       0.84788249       0.00000000
Si       0.21856293      -0.51522012      -2.33968307       0.00000000
Si      -1.99039365       0.91302192       1.45328088       0.00000000
Si      -0.40013127       2.50463637       2.07622906       0.00000000
Si       3.01361742       1.17115326       1.99214211       0.00000000
Si       3.69010854      -0.77617289       0.78324540       0.00000000
Si       1.02631887      -1.95964970       3.24719336       0.00000000
Si      -3.56377796       1.82017944      -0.02839748       0.00000000
Si       1.64082654       0.85167378      -3.66203152       0.00000000
