10
Lattice="16.28999089631971 0.0 0.0 0.0 16.28999089631971 0.0 0.0 0.0 34.54679606040008" Properties=species:S:1:pos:R:3:initial_magmoms:R:1 pbc="T T T"
Si      -0.62923383      -1.81322361       1.35202417       0.00000000
Si       1.20231603      -1.49012775      -1.47594359       0.00000000
Si      -1.74926907       1.13454963      -1.25847139       0.00000000
Si       1.60480935       1.20651885       1.41386297       0.00000000
Si      -1.57047003       3.08912157       0.78175988       0.00000000
Si       2.67674022      -2.43094041       0.24538603       0.00000000
Si      -0.52732359       2.36623653      -2.87308590       0.00000000
Si       3.52183284      -0.42339339       1.34387112       0.00000000
Si       2.78335827       2.69649999       0.06218427       0.00000000
Si       2.49188130      -0.23118768      -2.96594774       0.00000000
