10
Lattice="16.28999089631971 0.0 0.0 0.0 16.28999089631971 0.0 0.0 0.0 34.54679606040008" Properties=species:S:1:pos:R:3:initial_magmoms:R:1 pbc="T T T"
Si      -0.77123376       2.17844541       0.37694030       0.00000000
Si       2.28020904      -0.08786826      -0.57606815       0.00000000
Si      -1.17608913      -0.90114651      -1.83802876       0.00000000
Si      -0.82106487      -1.07222409       1.98333267       0.00000000
Si      -3.00123702      -1.67953158      -0.63697418       0.00000000
Si      -1.78803927      -2.94208803       1.01032162       0.00000000
Si      -2.92876281       1.68682950       1.34411295       0.00000000
Si       3.42520056       0.03539817       1.40415531       0.00000000
Si       0.49086657       3.14936199       2.07871643       0.00000000
Si       2.76102468      -2.02689954      -1.72640800       0.00000000
