10
Lattice="16.28999089631971 0.0 0.0 0.0 16.28999089631971 0.0 0.0 0.0 34.54679606040008" Properties=species:S:1:pos:R:3:initial_magmoms:R:1 pbc="T T T"
Si      -1.35166275       1.35824391      -1.36048814       0.00000000
Si       1.36215351      -1.35799956      -1.35827714       0.00000000
Si      -1.36433637      -1.34781831       1.37558509       0.00000000
Si       1.37810142       1.35975888       1.35458063       0.00000000
Si       0.14237460      -2.63805147       2.67772366       0.00000000
Si      -2.70440064       2.71235016      -0.00031092       0.00000000
Si      -2.71134018      -2.71423980      -0.00051820       0.00000000
Si      -2.70995553      -0.00029322      -2.71593244       0.00000000
Si       0.00485442       2.71503801      -2.71575970       0.00000000
Si       0.00446346      -2.71502172      -2.71676156       0.00000000
