10
Lattice="16.28999089631971 0.0 0.0 0.0 16.28999089631971 0.0 0.0 0.0 34.54679606040008" Properties=species:S:1:pos:R:3:initial_magmoms:R:1 pbc="T T T"
Si       1.35273789      -1.35410625      -1.36017721       0.00000000
Si       1.36034532       1.35021294       1.35958992       0.00000000
Si      -1.36317978       1.35948195      -1.35800077       0.00000000
Si      -1.37283975      -1.34644995       1.36404646       0.00000000
Si      -0.08614152       2.59719615       2.73168578       0.00000000
Si       2.70440064      -2.71235016       0.00031092       0.00000000
Si       2.70925506       0.00268785      -2.71544878       0.00000000
Si      -0.00555489      -2.71264338      -2.71562152       0.00000000
Si       2.71090035       2.71995759      -0.00708210       0.00000000
Si      -0.00527796       2.71740006      -2.71610517       0.00000000
