10
Lattice="16.28999089631971 0.0 0.0 0.0 16.28999089631971 0.0 0.0 0.0 34.54679606040008" Properties=species:S:1:pos:R:3:initial_magmoms:R:1 pbc="T T T"
Si      -2.04149279      -1.01864628      -0.12633770       0.00000000
Si      -0.46367693       2.28677391      -0.18734738       0.00000000
Si       1.24927358       0.15525999       2.03435832       0.00000000
Si       1.01277536      -0.75455280      -2.12511280       0.00000000
Si       2.85014075       0.44149158      -1.22541009       0.00000000
Si      -1.89889013      -0.95366547      -2.47355198       0.00000000
Si       1.81012199       2.60074737      -0.85714104       0.00000000
Si       2.57972675      -1.79247667       1.91924833       0.00000000
Si      -1.94776013      -3.30458030       0.28704949       0.00000000
Si      -1.48237112       3.13712820       1.81135862       0.00000000
