10
Lattice="16.28999089631971 0.0 0.0 0.0 16.28999089631971 0.0 0.0 0.0 34.54679606040008" Properties=species:S:1:pos:R:3:initial_magmoms:R:1 pbc="T T T"
Si      -1.28976075       1.49138208      -1.28061590       0.00000000
Si      -0.58945365      -2.03592420      -1.10380530       0.00000000
Si       2.37959433       0.25228323       0.05033471       0.00000000
Si      -0.37792800      -0.27225477       2.39278153       0.00000000
Si       0.40513230       3.05449133       1.74081403       0.00000000
Si      -0.42212277       3.50424031      -0.46496559       0.00000000
Si      -0.59425920       0.73423917      -3.53310281       0.00000000
Si       3.11844357      -1.99497114       0.37998042       0.00000000
Si       2.99107206       0.77690268      -2.11492149       0.00000000
Si       0.96451461       1.44466236       3.38897349       0.00000000
