10
Lattice="16.28999089631971 0.0 0.0 0.0 16.28999089631971 0.0 0.0 0.0 34.54679606040008" Properties=species:S:1:pos:R:3:initial_magmoms:R:1 pbc="T T T"
Si       1.35695700      -1.35526284       1.35993539       0.00000000
Si      -1.35791811      -1.34972424      -1.36683093       0.00000000
Si      -1.35866745       1.35803214       1.35810441       0.00000000
Si       1.36640520       1.34959392      -1.39281014       0.00000000
Si       2.71313208      -2.71561793       0.00089822       0.00000000
Si      -0.00104256      -2.71342856       2.71641609       0.00000000
Si       2.71399545       0.00138465       2.71693429       0.00000000
Si      -2.71767699      -2.71375273      -0.00438745       0.00000000
Si      -2.71463076       2.71713942      -0.00200372       0.00000000
Si       2.71792134       2.71407690      -0.00124369       0.00000000
