10
Lattice="16.28999089631971 0.0 0.0 0.0 16.28999089631971 0.0 0.0 0.0 34.54679606040008" Properties=species:S:1:pos:R:3:initial_magmoms:R:1 pbc="T T T"
Si      -1.51413921      -1.32161652      -1.20122732       0.00000000
Si      -1.29171555       1.40559731       1.37489416       0.00000000
Si       1.08178632       1.30588622      -1.69369217       0.00000000
Si       1.27008243      -1.15173411       1.67807701       0.00000000
Si       0.17801712      -2.61776295      -2.28133350       0.00000000
Si      -1.82373066       3.08876156      -0.18154351       0.00000000
Si      -0.46139796      -2.02713642       3.03151760       0.00000000
Si       0.33510159       3.50474300      -1.10954007       0.00000000
Si      -0.18182898       1.54855835       3.40645418       0.00000000
Si       1.97095968       0.57443264       3.16739022       0.00000000
