10
Lattice="16.28999089631971 0.0 0.0 0.0 16.28999089631971 0.0 0.0 0.0 34.54679606040008" Properties=species:S:1:pos:R:3:initial_magmoms:R:1 pbc="T T T"
Si      -0.48081564       1.93903128       1.15033986       0.00000000
Si      -1.10988657      -0.14296104      -2.03156002       0.00000000
Si      -0.88811451      -1.84112023       1.19528526       0.00000000
Si       2.15278866      -0.97412571      -0.23906396       0.00000000
Si       1.45191141      -2.70029246      -1.72837717       0.00000000
Si      -3.24374625      -0.72451404      -1.37375411       0.00000000
Si      -0.27956898      -3.57569477      -0.37493659       0.00000000
Si       2.43818946      -1.71154957       2.04475691       0.00000000
Si       0.37607094      -1.77755503       3.17001578       0.00000000
Si       0.18182898      -1.54855835      -3.40645418       0.00000000
