10
Lattice="16.28999089631971 0.0 0.0 0.0 16.28999089631971 0.0 0.0 0.0 34.54679606040008" Properties=species:S:1:pos:R:3:initial_magmoms:R:1 pbc="T T T"
Si      -1.35780408      -1.35617508       1.35820805       0.00000000
Si       1.35703845       1.35883035       1.35865715       0.00000000
Si       1.35866745      -1.35803214      -1.35810441       0.00000000
Si      -1.35596331       1.35910728      -1.36010812       0.00000000
Si       2.71562445      -2.71329498       0.00183098       0.00000000
Si       0.00047241      -2.71412577       2.71610517       0.00000000
Si      -2.71665072      -2.71378368       0.00252192       0.00000000
Si       2.71492398       0.00068418       2.71613972       0.00000000
Si      -2.71577106       0.00118917       2.71565606       0.00000000
Si      -2.71560816       2.71625976       0.00141642       0.00000000
