10
Lattice="16.28999089631971 0.0 0.0 0.0 16.28999089631971 0.0 0.0 0.0 34.54679606040008" Properties=species:S:1:pos:R:3:initial_magmoms:R:1 pbc="T T T"
Si      -1.24423020       1.45916046       1.31523181       0.00000000
Si      -1.37922543      -1.33682256      -1.36079906       0.00000000
Si       1.33594290       1.37984445      -1.36245730       0.00000000
Si       1.27534410      -1.49644827       1.48254203       0.00000000
Si      -2.53379547       0.20022039       2.80523595       0.00000000
Si       2.69074962      -2.68505789      -0.00397288       0.00000000
Si      -0.02243133      -2.68978851      -2.72173630       0.00000000
Si       2.69296506       0.02472822      -2.72156357       0.00000000
Si      -2.74121604      -2.68606462       0.02325001       0.00000000
Si       2.69185734       2.73725757       0.00787667       0.00000000
