10
Lattice="16.28999089631971 0.0 0.0 0.0 16.28999089631971 0.0 0.0 0.0 34.54679606040008" Properties=species:S:1:pos:R:3:initial_magmoms:R:1 pbc="T T T"
Si      -0.21745521       2.11698324       1.04065372       0.00000000
Si      -1.50021126       0.73104633      -1.69949604       0.00000000
Si      -1.73229489      -1.01766888       1.30707876       0.00000000
Si       2.25061011      -0.92657520      -0.15148779       0.00000000
Si      -2.47076946       2.10222450       0.02539191       0.00000000
Si       1.38945555      -2.90230785      -1.33219429       0.00000000
Si      -0.02054169       1.96810893      -2.95178355       0.00000000
Si      -0.44069337      -1.53927468       3.32219450       0.00000000
Si       1.58345316       3.02622588      -1.59537193       0.00000000
Si       0.41541129       1.92042810       3.34578997       0.00000000
