10
Lattice="16.28999089631971 0.0 0.0 0.0 16.28999089631971 0.0 0.0 0.0 34.54679606040008" Properties=species:S:1:pos:R:3:initial_magmoms:R:1 pbc="T T T"
Si       1.69069023      -0.83331495       1.38394542       0.00000000
Si      -1.43223309      -1.22499171      -1.40270434       0.00000000
Si      -1.35584928       0.98741835       1.70260525       0.00000000
Si       1.10454345       1.50716709      -1.49539345       0.00000000
Si      -0.90805347       2.54135403      -2.18757344       0.00000000
Si      -1.94637807       0.50595111      -2.95990205       0.00000000
Si       0.36124704       2.42836659       2.62258694       0.00000000
Si       2.00948553       0.80679483       3.08433968       0.00000000
Si      -0.19896606      -3.12803838      -2.18615702       0.00000000
Si       3.75714189      -0.73127439       0.25039532       0.00000000
