10
Lattice="16.28999089631971 0.0 0.0 0.0 16.28999089631971 0.0 0.0 0.0 34.54679606040008" Properties=species:S:1:pos:R:3:initial_magmoms:R:1 pbc="T T T"
Si      -1.69069023       0.83331495      -1.38394542       0.00000000
Si      -0.72857025      -1.89589536       1.16823511       0.00000000
Si       2.06645166       0.10204056      -1.13355011       0.00000000
Si       0.31879530       1.64010978       1.70039425       0.00000000
Si      -3.04653951       1.82073330       0.31865982       0.00000000
Si       2.48591916       2.50242093      -0.79198574       0.00000000
Si       0.41642127      -1.77262893       3.14845857       0.00000000
Si      -0.32141799       0.46610577       3.62496279       0.00000000
Si      -1.32944319       3.26168154       1.23864152       0.00000000
Si      -0.58614678       2.34048204      -2.87933887       0.00000000
