10
Lattice="16.28999089631971 0.0 0.0 0.0 16.28999089631971 0.0 0.0 0.0 34.54679606040008" Properties=species:S:1:pos:R:3:initial_magmoms:R:1 pbc="T T T"
Si       1.14499152       0.12326643       1.98022346       0.00000000
Si       0.48081564      -1.93903128      -1.15033986       0.00000000
Si       0.72857025       1.89589536      -1.16823511       0.00000000
Si      -2.28020904       0.08786826       0.57606815       0.00000000
Si       0.40715226       2.36200113       2.45672768       0.00000000
Si       3.43500714       0.12263112       1.19317791       0.00000000
Si       1.04736555       3.53600514       0.53215914       0.00000000
Si      -3.45629817      -0.81327825      -1.26196062       0.00000000
Si      -0.40729887      -3.78015151       0.04494541       0.00000000
Si       0.58751514      -1.77578919       3.35463396       0.00000000
