10
Lattice="16.28999089631971 0.0 0.0 0.0 16.28999089631971 0.0 0.0 0.0 34.54679606040008" Properties=species:S:1:pos:R:3:initial_magmoms:R:1 pbc="T T T"
Si       0.85851558       0.45175428       2.10614660       0.00000000
Si       0.64021329       1.17400401      -1.92456854       0.00000000
Si      -2.19649473       0.87522912       0.19805689       0.00000000
Si       0.73783926      -2.23873470      -0.47650422       0.00000000
Si      -0.40715226      -2.36200113      -2.45672768       0.00000000
Si       0.32141799      -0.46610577      -3.62496279       0.00000000
Si       3.17459520       0.39521169       1.94913132       0.00000000
Si      -3.45859506      -0.09568746      -1.50371923       0.00000000
Si      -1.00802520       2.79557577      -2.38632127       0.00000000
Si      -0.58533228       1.94641065       3.22701802       0.00000000
