10
Lattice="16.28999089631971 0.0 0.0 0.0 16.28999089631971 0.0 0.0 0.0 34.54679606040008" Properties=species:S:1:pos:R:3:initial_magmoms:R:1 pbc="T T T"
Si       1.27711971      -1.33193556       1.52307927       0.00000000
Si      -1.45645632       1.37775933       1.50422362       0.00000000
Si       1.64152701       1.30505706      -1.38349428       0.00000000
Si      -1.04842440      -2.06058726      -1.40470603       0.00000000
Si      -0.01754433       1.96890714      -2.85691596       0.00000000
Si       2.69325828      -2.67002874       0.00688518       0.00000000
Si       2.65088799       2.76692166       0.16327516       0.00000000
Si       2.61654867       0.02088378       2.91134650       0.00000000
Si      -2.80565928      -2.77174350       0.10352299       0.00000000
Si      -0.09068643      -2.69265555       2.90706269       0.00000000
