10
Lattice="16.28999089631971 0.0 0.0 0.0 16.28999089631971 0.0 0.0 0.0 34.54679606040008" Properties=species:S:1:pos:R:3:initial_magmoms:R:1 pbc="T T T"
Si       1.33975476      -1.17514431       1.53401679       0.00000000
Si       1.89038934       0.66023370      -1.24902080       0.00000000
Si      -1.30189713      -1.26641718      -1.56298226       0.00000000
Si      -1.34437069       1.53611442       1.52635431       0.00000000
Si      -1.97230265       0.52100307      -2.96993586       0.00000000
Si      -2.70756809      -2.57422725      -0.04141127       0.00000000
Si       2.67035454      -2.62260855       0.18980366       0.00000000
Si       2.63381607       2.73792546      -0.01546661       0.00000000
Si      -0.00649319      -2.51185284       2.89909965       0.00000000
Si       1.37371941      -0.39232836      -3.60459541       0.00000000
