10
Lattice="16.28999089631971 0.0 0.0 0.0 16.28999089631971 0.0 0.0 0.0 34.54679606040008" Properties=species:S:1:pos:R:3:initial_magmoms:R:1 pbc="T T T"
Si       0.89746497      -1.98174366       0.96392524       0.00000000
Si      -0.63286650       0.19655514      -2.30513626       0.00000000
Si       1.66314384       1.68573807      -0.40357590       0.00000000
Si      -1.71142740       0.75952125       1.59516465       0.00000000
Si       0.84492972       1.98842256      -2.73745510       0.00000000
Si      -0.85610466      -3.45970278      -0.02359547       0.00000000
Si      -0.38030634       2.33347734       2.70715755       0.00000000
Si       0.63364842       3.47268591       0.87921645       0.00000000
Si       0.94117104      -1.47892023       3.34095342       0.00000000
Si      -0.41541129      -1.92042810      -3.34578997       0.00000000
