10
Lattice="16.28999089631971 0.0 0.0 0.0 16.28999089631971 0.0 0.0 0.0 34.54679606040008" Properties=species:S:1:pos:R:3:initial_magmoms:R:1 pbc="T T T"
Si      -0.27849384       2.29337136      -0.62115174       0.00000000
Si       2.29697145       0.01410714      -0.68789619       0.00000000
Si      -0.15542289      -0.17904339       2.46764447       0.00000000
Si      -2.30479065      -1.14218964      -0.41977835       0.00000000
Si      -2.40028263       0.25335837       1.53574413       0.00000000
Si      -0.98986185      -1.55421261      -2.32254785       0.00000000
Si       2.46855402       0.09529650       1.69206847       0.00000000
Si       0.70415154       2.18704653      -2.76167242       0.00000000
Si      -0.31824144       0.26326269      -3.70459320       0.00000000
Si       0.65837664      -3.17578437      -1.86079512       0.00000000
