10
Lattice="16.28999089631971 0.0 0.0 0.0 16.28999089631971 0.0 0.0 0.0 34.54679606040008" Properties=species:S:1:pos:R:3:initial_magmoms:R:1 pbc="T T T"
Si      -1.34464176      -1.35094599       1.36912484       0.00000000
Si       1.39821957      -1.32230817      -1.37735735       0.00000000
Si       1.36805049       1.36593279       1.36532469       0.00000000
Si      -1.36143675       1.20101283      -1.56823196       0.00000000
Si       0.51704460       2.25124542      -2.71083475       0.00000000
Si       2.33249994       0.51956955      -2.75695475       0.00000000
Si      -2.70767493       2.70301650      -0.02408949       0.00000000
Si      -2.70912474      -2.71147050      -0.03640889       0.00000000
Si       2.72347623      -2.70472644       0.01831327       0.00000000
Si      -2.70409113       0.00364896       2.72843838       0.00000000
