10
Lattice="16.28999089631971 0.0 0.0 0.0 16.28999089631971 0.0 0.0 0.0 34.54679606040008" Properties=species:S:1:pos:R:3:initial_magmoms:R:1 pbc="T T T"
Si      -0.63571725       0.33635592       2.27131492       0.00000000
Si       1.21847571      -2.03142816       0.28179837       0.00000000
Si       1.75580136       1.54549746      -0.62146266       0.00000000
Si      -1.97607474       0.33466176      -1.59575195       0.00000000
Si      -1.26605880      -1.93881951      -1.31727007       0.00000000
Si       1.83000231       2.21635224       1.62211117       0.00000000
Si      -0.63964314       2.68793145       1.82386457       0.00000000
Si      -0.39851856       1.26570042      -3.23085272       0.00000000
Si      -2.92335453      -0.60416352       2.24581937       0.00000000
Si       0.82357353       3.00566790      -2.14774096       0.00000000
