10
Lattice="16.28999089631971 0.0 0.0 0.0 16.28999089631971 0.0 0.0 0.0 34.54679606040008" Properties=species:S:1:pos:R:3:initial_magmoms:R:1 pbc="T T T"
Si       0.93222783      -1.46017044       1.52627830       0.00000000
Si       1.73089395       1.16549478      -1.05457609       0.00000000
Si      -1.22209209      -1.73996748      -1.08311176       0.00000000
Si      -1.89514602       1.47040123       0.08574520       0.00000000
Si       0.30729456       2.37436265      -2.50074032       0.00000000
Si      -2.42528778      -0.35026758      -2.51207168       0.00000000
Si      -2.35281357       1.21417908       2.39433613       0.00000000
Si      -0.82357353      -3.00566790       2.14774096       0.00000000
Si      -1.10811096       3.56297228      -1.01422541       0.00000000
Si       2.67309126      -2.76320754       0.46745296       0.00000000
