10
Lattice="16.28999089631971 0.0 0.0 0.0 16.28999089631971 0.0 0.0 0.0 34.54679606040008" Properties=species:S:1:pos:R:3:initial_magmoms:R:1 pbc="T T T"
Si       0.71001594      -2.27348127       0.27848188       0.00000000
Si       1.57755618       0.93103866      -1.63510077       0.00000000
Si      -0.82516995      -1.66241079      -1.62832960       0.00000000
Si       1.97607474      -0.33466176       1.59575195       0.00000000
Si      -2.08808478       1.65190374      -0.06546622       0.00000000
Si      -2.76110613      -1.04871762       0.08059772       0.00000000
Si      -1.53784116      -2.05128567       1.77812459       0.00000000
Si      -2.31446691      -0.39978918      -3.05196931       0.00000000
Si       0.37436049       2.32073856      -3.06406070       0.00000000
Si       2.79964827       2.67100614      -0.55198902       0.00000000
