10
Lattice="16.28999089631971 0.0 0.0 0.0 16.28999089631971 0.0 0.0 0.0 34.54679606040008" Properties=species:S:1:pos:R:3:initial_magmoms:R:1 pbc="T T T"
Si       1.88113662      -1.06780950      -0.88491668       0.00000000
Si      -1.31676957      -1.66658917      -1.02866597       0.00000000
Si       0.04062726       0.19064187       2.35999660       0.00000000
Si      -0.80076753       2.10662280      -0.72990512       0.00000000
Si      -0.35357445      -3.68470745      -0.24818432       0.00000000
Si      -3.09078315       2.10725811       0.05714043       0.00000000
Si      -1.60217037      -0.92916531      -3.31248684       0.00000000
Si      -3.37888809      -1.73259463       0.09659290       0.00000000
Si       0.32171121      -2.01278100       3.21402842       0.00000000
Si       0.26674875       3.78545391       0.49308670       0.00000000
