10
Lattice="16.28999089631971 0.0 0.0 0.0 16.28999089631971 0.0 0.0 0.0 34.54679606040008" Properties=species:S:1:pos:R:3:initial_magmoms:R:1 pbc="T T T"
Si      -0.86325597       1.62364222       1.45186446       0.00000000
Si      -0.04077387      -0.32181221      -2.35008166       0.00000000
Si       1.86479775      -1.01871421       1.41935591       0.00000000
Si      -2.51234154       0.59753512      -0.09628197       0.00000000
Si       2.42473459      -2.22754903      -0.50383076       0.00000000
Si       2.36869699      -0.78381778      -2.43848696       0.00000000
Si      -1.96336854       0.22926383       2.90491876       0.00000000
Si      -2.83977054      -1.56998689       1.52081991       0.00000000
Si      -0.32185782       1.88161066      -3.20411348       0.00000000
Si      -1.02431520      -3.30166276       1.47469991       0.00000000
