10
Lattice="16.28999089631971 0.0 0.0 0.0 16.28999089631971 0.0 0.0 0.0 34.54679606040008" Properties=species:S:1:pos:R:3:initial_magmoms:R:1 pbc="T T T"
Si       1.35640973       1.35692442      -1.35686072       0.00000000
Si      -1.35703845      -1.35664749      -1.35699891       0.00000000
Si       1.35681202      -1.35769005       1.35762075       0.00000000
Si      -1.35773892       1.35733167       1.35730983       0.00000000
Si       2.71444898       0.00226431      -2.71323779       0.00000000
Si       2.71284605      -0.00017919       2.71486149       0.00000000
Si      -2.71332756       0.00037467       2.71451602       0.00000000
Si      -0.00267156      -2.71482135       2.71334143       0.00000000
Si       2.71426653      -2.71498425      -0.00003455       0.00000000
Si       2.71477641       2.71472850      -0.00020728       0.00000000
