10
Lattice="16.28999089631971 0.0 0.0 0.0 16.28999089631971 0.0 0.0 0.0 34.54679606040008" Properties=species:S:1:pos:R:3:initial_magmoms:R:1 pbc="T T T"
Si       1.20323220       1.49182191       1.29851115       0.00000000
Si       1.45360950      -1.25592642      -1.37416867       0.00000000
Si      -1.27635408       1.45995867      -1.37658695       0.00000000
Si      -0.96681150      -1.85541471       1.22261180       0.00000000
Si       2.16007748       0.27901512       3.00032182       0.00000000
Si       2.73337145      -2.60995122       0.16223184       0.00000000
Si       0.08373060      -2.61120555      -2.74574634       0.00000000
Si      -2.62925487       0.10228491      -2.74505540       0.00000000
Si       0.71138334      -3.58438644       1.34079645       0.00000000
Si      -2.55487473       2.94163191      -0.02179904       0.00000000
