10
Lattice="16.28999089631971 0.0 0.0 0.0 16.28999089631971 0.0 0.0 0.0 34.54679606040008" Properties=species:S:1:pos:R:3:initial_magmoms:R:1 pbc="T T T"
Si      -1.78437402      -0.94670964      -1.25242570       0.00000000
Si       1.67819484      -1.72897173       0.11818466       0.00000000
Si       0.96681150       1.85541471      -1.22261180       0.00000000
Si      -1.94365764      -0.78164307       1.56047965       0.00000000
Si      -0.08553879      -0.52497783       3.20663540       0.00000000
Si      -0.31276800      -2.12053446      -2.63049816       0.00000000
Si       2.42042100       0.59948829      -2.59678047       0.00000000
Si       1.35859482      -2.34020511       2.45935324       0.00000000
Si       0.91727361      -3.48335586      -1.22357911       0.00000000
Si       3.70018295      -0.75453651      -1.06037995       0.00000000
