10
Lattice="16.28999089631971 0.0 0.0 0.0 16.28999089631971 0.0 0.0 0.0 34.54679606040008" Properties=species:S:1:pos:R:3:initial_magmoms:R:1 pbc="T T T"
Si       0.24645141      -2.13944715      -1.05554340       0.00000000
Si       2.27266677       0.76694949       0.24593878       0.00000000
Si      -1.46531808       1.48035375      -1.24617272       0.00000000
Si      -0.82533285      -0.39495105       2.24879040       0.00000000
Si       0.24218343       1.28388006       3.47178221       0.00000000
Si      -3.53176974       1.37831319      -0.11262262       0.00000000
Si      -1.62673569      -3.43073916      -0.33379133       0.00000000
Si      -0.02456532      -2.50157385       2.97869551       0.00000000
Si       2.33857611       3.13364214       0.64599090       0.00000000
Si       0.95366547      -1.95502806      -3.33839696       0.00000000
