10
Lattice="16.28999089631971 0.0 0.0 0.0 16.28999089631971 0.0 0.0 0.0 34.54679606040008" Properties=species:S:1:pos:R:3:initial_magmoms:R:1 pbc="T T T"
Si      -2.17350954       0.69748893      -0.55969296       0.00000000
Si       0.93141400       2.11304106       0.54570150       0.00000000
Si       1.01869419      -0.85035429      -1.99870600       0.00000000
Si      -0.79884531      -1.19439909       1.92173570       0.00000000
Si      -1.72094076       2.63997369      -1.72316060       0.00000000
Si      -3.09428550       1.65323952       1.42999633       0.00000000
Si      -0.14302620       0.18055836      -3.78553639       0.00000000
Si       1.37835621       2.06650053       2.87484779       0.00000000
Si      -3.24102582      -0.98134218      -1.78268477       0.00000000
Si      -0.69913422       3.82839435       0.00148551       0.00000000
