10
Lattice="16.28999089631971 0.0 0.0 0.0 16.28999089631971 0.0 0.0 0.0 34.54679606040008" Properties=species:S:1:pos:R:3:initial_magmoms:R:1 pbc="T T T"
Si      -1.35762489      -1.35514881      -1.35824259       0.00000000
Si       1.35857914      -1.35654975       1.35841533       0.00000000
Si       1.35763878       1.36019871      -1.35786258       0.00000000
Si      -1.36096434       1.36181142       1.36470285       0.00000000
Si      -0.00011403      -2.71285515      -2.71555242       0.00000000
Si       2.71634677      -2.71252935      -0.00259101       0.00000000
Si      -2.71619460      -2.71309950      -0.00120914       0.00000000
Si       2.71516086       0.00190593      -2.71555242       0.00000000
Si      -2.71551042       0.00221544      -2.71558697       0.00000000
Si       2.71539217       2.71725345      -0.00134733       0.00000000
