10
Lattice="16.28999089631971 0.0 0.0 0.0 16.28999089631971 0.0 0.0 0.0 34.54679606040008" Properties=species:S:1:pos:R:3:initial_magmoms:R:1 pbc="T T T"
Si      -1.60399485      -1.05811695      -1.35641161       0.00000000
Si       1.02275136       1.62588861      -1.36100634       0.00000000
Si      -0.32311215       0.88262478       2.20370681       0.00000000
Si      -2.80764666       0.97523343       0.60463836       0.00000000
Si      -1.80090837      -0.90924264       2.63602565       0.00000000
Si       2.30127201       0.14421537      -2.71579425       0.00000000
Si       1.95507693       3.15651330       0.24162043       0.00000000
Si      -0.40961205      -2.57359194      -2.71472330       0.00000000
Si      -1.58345316      -3.02622588       1.59537193       0.00000000
Si      -1.54158786       2.91405294       1.92190843       0.00000000
