10
Lattice="16.28999089631971 0.0 0.0 0.0 16.28999089631971 0.0 0.0 0.0 34.54679606040008" Properties=species:S:1:pos:R:3:initial_magmoms:R:1 pbc="T T T"
Si      -1.45718937       1.23904998      -1.35727528       0.00000000
Si      -1.02275136      -1.62588861       1.36100634       0.00000000
Si       1.27852065      -1.48167324      -1.35478791       0.00000000
Si       0.93232557       1.53062469       1.60262676       0.00000000
Si       2.57274486       2.68278381       0.34436266       0.00000000
Si      -2.62674621      -2.68400556       0.00459473       0.00000000
Si      -0.07938117       2.59221141      -2.71738340       0.00000000
Si       2.64016231      -0.12614976      -2.72367092       0.00000000
Si      -1.34586351      -0.74326383       3.56471314       0.00000000
Si       2.55487473      -2.94163191       0.02179904       0.00000000
