10
Lattice="16.28999089631971 0.0 0.0 0.0 16.28999089631971 0.0 0.0 0.0 34.54679606040008" Properties=species:S:1:pos:R:3:initial_magmoms:R:1 pbc="T T T"
Si       1.33861187      -0.66140658      -1.79356701       0.00000000
Si       0.24237891       2.35361178      -0.10250040       0.00000000
Si      -2.33178318      -0.34738425       0.34038977       0.00000000
Si       1.05264351      -1.09447623       1.89098903       0.00000000
Si       3.33269684       0.42189471      -1.00583053       0.00000000
Si      -2.50760115      -0.00039096       2.70757211       0.00000000
Si       2.63802933       2.60661177      -0.34843918       0.00000000
Si      -0.59118039      -1.00175355       3.55331269       0.00000000
Si      -0.16030989       3.16793259       2.10949764       0.00000000
Si      -2.75125068      -2.74776462      -0.00117459       0.00000000
