10
Lattice="16.28999089631971 0.0 0.0 0.0 16.28999089631971 0.0 0.0 0.0 34.54679606040008" Properties=species:S:1:pos:R:3:initial_magmoms:R:1 pbc="T T T"
Si      -1.02180654      -1.18842066      -1.72464612       0.00000000
Si       0.46522611       2.05600977      -1.09661956       0.00000000
Si      -1.72962333       0.06486678       1.65195962       0.00000000
Si       1.63054822      -1.71535329       0.54421598       0.00000000
Si      -1.47437532      -3.13090542      -0.56117847       0.00000000
Si       0.60439158       3.36960279       0.86588138       0.00000000
Si      -2.39515128      -2.17515483       1.42851082       0.00000000
Si       0.62201736      -1.28114334      -3.38696978       0.00000000
Si       2.65631975       1.84208949      -1.89917663       0.00000000
Si      -3.11935581       1.87471836       1.10767454       0.00000000
