10
Lattice="16.28999089631971 0.0 0.0 0.0 16.28999089631971 0.0 0.0 0.0 34.54679606040008" Properties=species:S:1:pos:R:3:initial_magmoms:R:1 pbc="T T T"
Si       1.35761416      -1.35047358      -1.35658435       0.00000000
Si      -1.35695700      -1.35571896       1.35630797       0.00000000
Si       1.35817290       1.35837001       1.35634252       0.00000000
Si      -1.35695700       1.35635168      -1.35965901       0.00000000
Si      -2.69905752       0.00012111      -2.70905417       0.00000000
Si      -0.00506619      -2.70689301      -2.70632151       0.00000000
Si       0.00105645      -2.71365336       2.71410146       0.00000000
Si      -2.71414206       0.00127457       2.71368689       0.00000000
Si       2.71349765       2.71541987      -0.00155461       0.00000000
Si       2.71486601      -2.71427238      -0.00172734       0.00000000
