10
Lattice="16.28999089631971 0.0 0.0 0.0 16.28999089631971 0.0 0.0 0.0 34.54679606040008" Properties=species:S:1:pos:R:3:initial_magmoms:R:1 pbc="T T T"
Si       1.64041929       1.15215912      -1.25826411       0.00000000
Si      -0.93232557      -1.53062469      -1.60262676       0.00000000
Si      -1.74086343       1.30303710       1.05882534       0.00000000
Si      -1.95507693      -3.15651330      -0.24162043       0.00000000
Si      -2.27818908      -2.27388852       1.96208638       0.00000000
Si       1.71100704      -1.06144011       3.23796936       0.00000000
Si      -2.38951494      -0.29157471      -2.95990205       0.00000000
Si       0.35955288       2.42937657      -2.93520107       0.00000000
Si       2.98713055       2.38138623       0.44689760       0.00000000
Si      -2.67309126       2.76320754      -0.46745296       0.00000000
