10
Lattice="16.28999089631971 0.0 0.0 0.0 16.28999089631971 0.0 0.0 0.0 34.54679606040008" Properties=species:S:1:pos:R:3:initial_magmoms:R:1 pbc="T T T"
Si      -0.18384894       2.27589938      -0.46914575       0.00000000
Si      -0.34541316      -0.90067410       2.15907232       0.00000000
Si       2.14817859      -0.93190203      -0.42734411       0.00000000
Si      -0.98303634      -1.71299124      -1.38453272       0.00000000
Si       1.03420323      -3.02489010      -0.57109340       0.00000000
Si       3.14926492       0.10325741       1.45718467       0.00000000
Si       1.24328538       2.01400505      -2.59574407       0.00000000
Si       0.06431292      -3.20554620       1.61713643       0.00000000
Si       2.65514035       0.07783362      -2.48664522       0.00000000
Si      -2.36061648       0.22461680       2.77663119       0.00000000
