10
Lattice="16.28999089631971 0.0 0.0 0.0 16.28999089631971 0.0 0.0 0.0 34.54679606040008" Properties=species:S:1:pos:R:3:initial_magmoms:R:1 pbc="T T T"
Si      -2.12053446       0.74429010       0.68247234       0.00000000
Si       1.37692286       1.88001261      -0.32536191       0.00000000
Si       0.40268880      -0.81432081      -2.21199804       0.00000000
Si       1.05616215      -0.92525571       2.07184161       0.00000000
Si       3.32557811       0.48578409      -0.40395591       0.00000000
Si      -2.70000234      -1.18773648       1.89617106       0.00000000
Si       0.82468125       3.03862257       1.64266652       0.00000000
Si      -1.50376248       2.70765864       1.86601169       0.00000000
Si       3.24725579      -1.13917599       1.26928454       0.00000000
Si       2.79833922      -0.56132082      -2.45793682       0.00000000
