10
Lattice="16.28999089631971 0.0 0.0 0.0 16.28999089631971 0.0 0.0 0.0 34.54679606040008" Properties=species:S:1:pos:R:3:initial_magmoms:R:1 pbc="T T T"
Si       0.62986914       0.03062520      -2.28413179       0.00000000
Si       1.05767712      -1.97877888       0.76617927       0.00000000
Si       1.30515480       1.70255165       1.17808095       0.00000000
Si      -2.41667037       0.05857884      -0.54507965       0.00000000
Si      -2.39544450       1.98273802      -1.93935457       0.00000000
Si      -0.33332598       2.04874347      -3.06461344       0.00000000
Si      -0.39478815      -3.78358056       0.12599224       0.00000000
Si       1.73325600      -1.68104655       3.03314130       0.00000000
Si       2.95831287       0.36158913      -2.50747695       0.00000000
Si       0.01309716      -1.93274334      -3.46767114       0.00000000
