10
Lattice="16.28999089631971 0.0 0.0 0.0 16.28999089631971 0.0 0.0 0.0 34.54679606040008" Properties=species:S:1:pos:R:3:initial_magmoms:R:1 pbc="T T T"
Si       2.12053446      -0.74429010      -0.68247234       0.00000000
Si      -2.17228779       0.24091281      -0.86007752       0.00000000
Si      -0.57946788      -1.93202658       1.21369872       0.00000000
Si       0.61677198       1.96336854       1.18353935       0.00000000
Si      -3.15493317       0.34723764       1.28044316       0.00000000
Si       3.49745732       1.13572251      -1.00783424       0.00000000
Si       3.17669661      -1.66954581       1.38936927       0.00000000
Si       2.94521571       2.29433247       0.96019419       0.00000000
Si      -0.22675680      -3.91261365      -0.08439787       0.00000000
Si      -2.87643933      -1.94613372       1.90159491       0.00000000
