10
Lattice="16.28999089631971 0.0 0.0 0.0 16.28999089631971 0.0 0.0 0.0 34.54679606040008" Properties=species:S:1:pos:R:3:initial_magmoms:R:1 pbc="T T T"
Si       1.11249297       1.20710529       1.61281808       0.00000000
Si       0.11692962       1.14772824      -2.08313842       0.00000000
Si      -2.27379893      -0.31397346       0.66979366       0.00000000
Si       1.04001876      -2.15925579      -0.36826905       0.00000000
Si      -1.81012199      -2.60074737       0.85714104       0.00000000
Si       1.15484697      -0.65928888       3.09788203       0.00000000
Si      -1.93227093       0.19891719      -2.85477609       0.00000000
Si       2.86516665      -1.38087072      -1.56932363       0.00000000
Si      -0.31364766       3.01089699       2.07844005       0.00000000
Si      -0.79734663      -3.35530017      -1.26797176       0.00000000
