10
Lattice="16.28999089631971 0.0 0.0 0.0 16.28999089631971 0.0 0.0 0.0 34.54679606040008" Properties=species:S:1:pos:R:3:initial_magmoms:R:1 pbc="T T T"
Si       1.30709962       1.43435079       1.18817588       0.00000000
Si      -1.45055370      -1.34609157       1.15807869       0.00000000
Si      -0.88833693       0.73218663      -1.99284103       0.00000000
Si      -2.74761237      -0.75676824      -2.12854092       0.00000000
Si       0.02066268      -2.61612513       2.43953753       0.00000000
Si      -2.40649977      -2.65308714      -0.67335996       0.00000000
Si       2.72067089       0.08804745       2.44617397       0.00000000
Si      -2.71770393       0.12655701       2.45846573       0.00000000
Si       3.02965961       2.14970985      -0.18398390       0.00000000
Si      -0.00488136       2.84338692       2.46282208       0.00000000
