10
Lattice="16.28999089631971 0.0 0.0 0.0 16.28999089631971 0.0 0.0 0.0 34.54679606040008" Properties=species:S:1:pos:R:3:initial_magmoms:R:1 pbc="T T T"
Si       1.35532474       1.35704985      -1.35789712       0.00000000
Si       1.35749131      -1.35722500       1.35727528       0.00000000
Si      -1.35745451       1.35729420       1.35765530       0.00000000
Si      -1.35817290      -1.35837001      -1.35634252       0.00000000
Si      -0.00055875      -2.70884359      -2.71292686       0.00000000
Si       2.71467637      -0.00189127       2.71385963       0.00000000
Si      -2.71512990      -2.71408897      -0.00003455       0.00000000
Si       0.00063694      -2.71496863       2.71427419       0.00000000
Si      -2.71426653       2.71498425       0.00003455       0.00000000
Si      -0.00142049       2.71480506       2.71489603       0.00000000
