10
Lattice="16.28999089631971 0.0 0.0 0.0 16.28999089631971 0.0 0.0 0.0 34.54679606040008" Properties=species:S:1:pos:R:3:initial_magmoms:R:1 pbc="T T T"
Si      -1.35857914       1.35654975      -1.35841533       0.00000000
Si       1.35776763      -1.35597960      -1.36100634       0.00000000
Si      -1.36164166      -1.35552348       1.36888301       0.00000000
Si       1.34398303       1.37174832       1.39075115       0.00000000
Si      -2.64016231       0.12614976       2.72367092       0.00000000
Si       2.71101214      -2.71358820      -0.00117459       0.00000000
Si      -2.71454245      -2.71319724       0.00041456       0.00000000
Si       2.71228276       2.71783989       0.00234918       0.00000000
Si      -0.00058815      -2.71375110      -2.71717612       0.00000000
Si       2.71443304       0.00096111      -2.71707248       0.00000000
