10
Lattice="16.28999089631971 0.0 0.0 0.0 16.28999089631971 0.0 0.0 0.0 34.54679606040008" Properties=species:S:1:pos:R:3:initial_magmoms:R:1 pbc="T T T"
Si      -2.14984418      -0.58057560      -0.78690736       0.00000000
Si       1.33638273      -1.68933816       1.09161027       0.00000000
Si       0.59549724       1.23575940       2.03933306       0.00000000
Si       0.91624734       1.45600020      -2.19393006       0.00000000
Si       2.69206911       0.08602749       1.82103173       0.00000000
Si       0.04114854      -2.09070747       3.01096224       0.00000000
Si      -3.51027413       1.14285753       0.09096176       0.00000000
Si      -0.65351896       0.09400959       3.66835359       0.00000000
Si      -2.92052726      -2.62604574       0.11058436       0.00000000
Si      -2.39629877       3.23584560       0.23471106       0.00000000
