10
Lattice="16.28999089631971 0.0 0.0 0.0 16.28999089631971 0.0 0.0 0.0 34.54679606040008" Properties=species:S:1:pos:R:3:initial_magmoms:R:1 pbc="T T T"
Si       1.29523419       0.40136931      -1.91935197       0.00000000
Si       1.16204715      -1.09996596       1.75515095       0.00000000
Si      -0.69466750       2.18471706       0.65739135       0.00000000
Si      -1.99408496      -1.08330129      -0.78773648       0.00000000
Si      -3.33269684      -0.42189471       1.00583053       0.00000000
Si       0.55434870       3.32646687      -0.97162918       0.00000000
Si       2.65092057       2.17673496      -1.18993051       0.00000000
Si      -0.04114854       2.09070747      -3.01096224       0.00000000
Si      -0.13530474      -0.65625894       3.66313702       0.00000000
Si       2.11888917      -1.68435342      -2.59273849       0.00000000
