10
Lattice="16.28999089631971 0.0 0.0 0.0 16.28999089631971 0.0 0.0 0.0 34.54679606040008" Properties=species:S:1:pos:R:3:initial_magmoms:R:1 pbc="T T T"
Si       0.07832232       1.62496008      -1.67324046       0.00000000
Si      -2.19109364       0.21392028       0.80255707       0.00000000
Si       1.93758147       0.14973768       1.36674111       0.00000000
Si       0.11044620      -2.26312083      -0.72147569       0.00000000
Si       1.02165993      -3.19596768       1.30763151       0.00000000
Si       1.93277592       2.91990105      -1.06255640       0.00000000
Si      -3.24725579       1.13917599      -1.26928454       0.00000000
Si       3.68699715      -0.46757187      -0.17180131       0.00000000
Si      -2.65631975      -1.84208949       1.89917663       0.00000000
Si      -2.05192817       1.52751330       2.76505801       0.00000000
