10
Lattice="16.28999089631971 0.0 0.0 0.0 16.28999089631971 0.0 0.0 0.0 34.54679606040008" Properties=species:S:1:pos:R:3:initial_magmoms:R:1 pbc="T T T"
Si      -1.60282197       1.75148451      -0.13766906       0.00000000
Si       1.40413284      -0.19393245      -1.92177025       0.00000000
Si      -1.12270354      -2.16140607       0.01164228       0.00000000
Si       2.16797094       1.06323201       0.69459827       0.00000000
Si      -1.56964576      -2.11486554      -2.31750402       0.00000000
Si      -0.47656395       3.37431060       1.17224254       0.00000000
Si       3.56759145       0.11290599      -0.94844827       0.00000000
Si       1.60523289       3.35598435       0.10243131       0.00000000
Si       0.47778570      -1.75339044      -3.45326512       0.00000000
Si      -3.38280488       1.36282140       1.44678608       0.00000000
