10
Lattice="16.28999089631971 0.0 0.0 0.0 16.28999089631971 0.0 0.0 0.0 34.54679606040008" Properties=species:S:1:pos:R:3:initial_magmoms:R:1 pbc="T T T"
Si      -1.72255999      -0.71535906       1.37215978       0.00000000
Si       0.84965382       1.82617416       1.26865752       0.00000000
Si      -1.01175561       0.59396598      -2.08340067       0.00000000
Si       1.85240106      -1.66286691      -0.15347738       0.00000000
Si      -0.30898872      -2.06166240       2.63015788       0.00000000
Si       1.07004123       0.57563973      -3.15321190       0.00000000
Si       1.63277928      -1.71711261      -2.56104494       0.00000000
Si       2.41129467       0.68484789       2.61268755       0.00000000
Si      -3.02965961      -2.14970985       0.18398390       0.00000000
Si       0.96918984      -3.56402394       1.08170052       0.00000000
