10
Lattice="10.86 0.0 0.0 0.0 10.86 0.0 0.0 0.0 10.86" Properties=species:S:1:pos:R:3:initial_magmoms:R:1 pbc="T T T"
Si       1.35089712       0.54432492       1.57847928       0.00000000
Si       1.09784826      -1.33177266      -1.34129688       0.00000000
Si      -1.61715174      -1.33177266       1.37370312       0.00000000
Si      -1.61715174       1.38322734      -1.34129688       0.00000000
Si       2.43290064       2.67977016       0.02711742       0.00000000
Si       2.45534826       0.02572734      -2.69879688       0.00000000
Si      -0.25965174      -2.68927266      -2.69879688       0.00000000
Si      -0.25965174       2.74072734      -2.69879688       0.00000000
Si      -0.11278110       2.66849748       2.78867424       0.00000000
Si       2.54170698      -2.92468488       0.11615856       0.00000000
