10
Lattice="10.86 0.0 0.0 0.0 10.86 0.0 0.0 0.0 10.86" Properties=species:S:1:pos:R:3:initial_magmoms:R:1 pbc="T T T"
Si       1.50167736      -1.61223216      -1.03571820       0.00000000
Si       1.50167736       1.10276784       1.67928180       0.00000000
Si      -1.21332264      -1.61223216       1.67928180       0.00000000
Si      -2.53584258       2.42400630       0.31251822       0.00000000
Si      -0.01644204       2.51410086      -2.48183580       0.00000000
Si       2.85917736      -0.25473216      -2.39321820       0.00000000
Si       2.85917736       2.46026784       0.32178180       0.00000000
Si       0.14417736       2.46026784       3.03678180       0.00000000
Si      -0.14714214      -2.93550144      -2.66235072       0.00000000
Si      -2.57082264      -0.25473216       3.03678180       0.00000000
