10
Lattice="10.86 0.0 0.0 0.0 10.86 0.0 0.0 0.0 10.86" Properties=species:S:1:pos:R:3:initial_magmoms:R:1 pbc="T T T"
Si      -1.44385872      -1.12208778       1.25754456       0.00000000
Si       1.27114128      -1.12208778      -1.45745544       0.00000000
Si       0.20613366       1.26727512       2.09493744       0.00000000
Si      -1.44385872       1.59291222      -1.45745544       0.00000000
Si       2.33732178       0.26964294       2.34591204       0.00000000
Si      -0.08635872      -2.47958778       2.61504456       0.00000000
Si       2.62864128      -2.47958778      -0.09995544       0.00000000
Si       2.49668142       2.77356798       0.12725748       0.00000000
Si      -2.80135872      -2.47958778      -0.09995544       0.00000000
Si      -0.08635872      -2.47958778      -2.81495544       0.00000000
