10
Lattice="16.28999089631971 0.0 0.0 0.0 16.28999089631971 0.0 0.0 0.0 34.69518985606464" Properties=species:S:1:pos:R:3:initial_magmoms:R:1 pbc="T T T"
Si       0.79341748       1.94003963      -1.02971912       0.00000000
Si       1.46981086      -1.20284613       1.47453598       0.00000000
Si      -1.36063269      -1.38964356      -1.44939379       0.00000000
Si      -1.27152639       1.49854805       1.47627768       0.00000000
Si       2.80539538      -2.60044668      -0.01873888       0.00000000
Si       0.10712956      -2.55727818       2.85643576       0.00000000
Si      -1.00935772       3.51722114      -1.21520113       0.00000000
Si      -2.79785052      -2.66642118      -0.05057174       0.00000000
Si      -2.60592174       0.16147951       2.86445035       0.00000000
Si      -2.84264802       2.70816200      -0.02874151       0.00000000
