10
Lattice="16.28999089631971 0.0 0.0 0.0 16.28999089631971 0.0 0.0 0.0 34.69518985606464" Properties=species:S:1:pos:R:3:initial_magmoms:R:1 pbc="T T T"
Si       1.02041521       1.09099017       1.85518753       0.00000000
Si      -0.43957508      -2.30636101       0.69661041       0.00000000
Si       1.41216853      -0.06994926      -2.03872519       0.00000000
Si      -2.27166251       1.11425229       0.11938622       0.00000000
Si      -1.84540208      -2.14105334      -2.07942267       0.00000000
Si      -0.24264527      -1.06220574      -3.47358026       0.00000000
Si       1.76354058       3.19262823       0.68523038       0.00000000
Si      -3.66722681      -0.77502933      -0.32478185       0.00000000
Si      -2.67003446      -2.27207056       1.42052595       0.00000000
Si      -2.07660605       2.80717425      -1.59767969       0.00000000
