10
Lattice="16.28999089631971 0.0 0.0 0.0 16.28999089631971 0.0 0.0 0.0 34.69518985606464" Properties=species:S:1:pos:R:3:initial_magmoms:R:1 pbc="T T T"
Si       1.34680833      -1.19086483       1.53972481       0.00000000
Si       1.87014087       0.93480817      -1.23317672       0.00000000
Si      -0.97997382      -1.72804387      -1.43388850       0.00000000
Si      -1.35925389       1.52383828       1.49584231       0.00000000
Si       2.46865176      -2.72888518       0.18172657       0.00000000
Si      -2.73183300      -2.58771604       0.01095675       0.00000000
Si       0.00231318      -2.54210404       2.89615831       0.00000000
Si       3.54050118      -1.04789318      -1.13372252       0.00000000
Si       2.72021823       2.80757173       0.09020060       0.00000000
Si       0.68084055      -3.70320637      -1.13969877       0.00000000
