10
Lattice="16.28999089631971 0.0 0.0 0.0 16.28999089631971 0.0 0.0 0.0 34.69518985606464" Properties=species:S:1:pos:R:3:initial_magmoms:R:1 pbc="T T T"
Si       1.09387350      -1.66306891       1.30839104       0.00000000
Si      -1.95978474      -1.26471487      -0.52164247       0.00000000
Si      -0.13639617       1.68583581       1.81664116       0.00000000
Si       0.99321759       0.51996051      -2.29515748       0.00000000
Si       0.97186140      -0.75917916       3.52423527       0.00000000
Si       3.34243107      -1.77981771       0.41252604       0.00000000
Si       1.91249487       1.38028428       3.07448127       0.00000000
Si      -1.35529542      -3.55617935      -0.84226090       0.00000000
Si      -2.52058428      -0.68245326      -2.91956716       0.00000000
Si      -0.21532122       3.83215734       0.89655890       0.00000000
