10
Lattice="16.28999089631971 0.0 0.0 0.0 16.28999089631971 0.0 0.0 0.0 34.69518985606464" Properties=species:S:1:pos:R:3:initial_magmoms:R:1 pbc="T T T"
Si       1.15044867      -1.70095309       1.01937994       0.00000000
Si      -2.04771816       0.44574327       1.10493833       0.00000000
Si       0.94063347       2.13946344      -0.44975400       0.00000000
Si       0.12201210      -0.90388975      -2.21584423       0.00000000
Si      -1.10825757       2.44501497      -1.70759411       0.00000000
Si       1.34192133      -0.88000535       3.19494304       0.00000000
Si      -3.37310514      -1.31494998       0.35878316       0.00000000
Si       3.31881057      -1.58919213       0.15477533       0.00000000
Si      -2.89683441       2.32916049      -0.02647244       0.00000000
Si      -0.97186140       0.75917916      -3.52423527       0.00000000
