10
Lattice="16.28999089631971 0.0 0.0 0.0 16.28999089631971 0.0 0.0 0.0 34.69518985606464" Properties=species:S:1:pos:R:3:initial_magmoms:R:1 pbc="T T T"
Si      -2.04499773       1.01963997      -0.70747001       0.00000000
Si       0.51041457       1.27503459       1.98977025       0.00000000
Si       1.70329869       0.14134833      -1.72969496       0.00000000
Si      -0.83152305      -2.14784302       0.78345252       0.00000000
Si      -2.95052625      -1.45171593       1.61239046       0.00000000
Si      -2.44257147       2.66797620       0.91630048       0.00000000
Si       1.21999068       3.39475455       1.15968737       0.00000000
Si       0.91137663      -1.34144892      -3.44735069       0.00000000
Si      -3.74803578      -0.59994441      -0.44541710       0.00000000
Si      -1.53303561       1.89169254       3.02708762       0.00000000
