10
Lattice="16.28999089631971 0.0 0.0 0.0 16.28999089631971 0.0 0.0 0.0 34.69518985606464" Properties=species:S:1:pos:R:3:initial_magmoms:R:1 pbc="T T T"
Si       1.33833753       1.35063648      -1.38077565       0.00000000
Si       1.35153243      -1.35790182       1.36244617       0.00000000
Si      -1.36388025       1.35816246       1.36085019       0.00000000
Si      -1.36446669      -1.35940050      -1.39504232       0.00000000
Si       2.71006956      -2.71057292       0.00478794       0.00000000
Si       2.71080261       0.00141723       2.71840434       0.00000000
Si       2.71236645       2.71710684       0.00204702       0.00000000
Si      -2.71985985      -2.71091012      -0.00117964       0.00000000
Si      -0.00438201      -2.71367454       2.71878599       0.00000000
Si      -0.00482184       2.71709055       2.71861251       0.00000000
