10
Lattice="16.28999089631971 0.0 0.0 0.0 16.28999089631971 0.0 0.0 0.0 34.69518985606464" Properties=species:S:1:pos:R:3:initial_magmoms:R:1 pbc="T T T"
Si      -1.34732961       1.34702010       1.35384176       0.00000000
Si       1.35778779       1.35444834      -1.35706841       0.00000000
Si      -1.35620766      -1.36019871      -1.35595817       0.00000000
Si       1.35532800      -1.36293543       1.36595039       0.00000000
Si       0.00192222       2.68048692       2.72187386       0.00000000
Si       2.71469592       2.70928764      -0.00117964       0.00000000
Si      -0.00006516       2.71192662      -2.71299189       0.00000000
Si      -2.71646501       2.71013472       0.00371239       0.00000000
Si      -2.71457863      -0.00302994      -2.71333884       0.00000000
Si       2.71482624      -0.00267156      -2.71337353       0.00000000
