10
Lattice="16.28999089631971 0.0 0.0 0.0 16.28999089631971 0.0 0.0 0.0 34.69518985606464" Properties=species:S:1:pos:R:3:initial_magmoms:R:1 pbc="T T T"
Si       0.34933905      -0.77791266      -2.15436432       0.00000000
Si      -2.32295400      -0.21590766       0.52656919       0.00000000
Si       1.72331910      -0.57941901       1.61801108       0.00000000
Si       3.15578025       0.07297920      -0.55692750       0.00000000
Si      -2.38475826       1.32665760       2.31791754       0.00000000
Si       1.37749869       0.96461235       3.37185391       0.00000000
Si       1.16001090       1.00908405      -3.44304848       0.00000000
Si       3.19937229       2.46299913      -0.16265114       0.00000000
Si      -1.59396021      -1.63320282      -3.35568594       0.00000000
Si       1.89048708       2.91724578      -2.16001964       0.00000000
