10
Lattice="16.28999089631971 0.0 0.0 0.0 16.28999089631971 0.0 0.0 0.0 34.69518985606464" Properties=species:S:1:pos:R:3:initial_magmoms:R:1 pbc="T T T"
Si      -0.34933905       0.77791266       2.15436432       0.00000000
Si       0.81067185       1.78699671      -1.28868416       0.00000000
Si      -1.94329926      -0.85529016      -1.20132162       0.00000000
Si       2.80644120       0.85089186       1.59743682       0.00000000
Si      -0.48135321      -2.13508143      -2.77155740       0.00000000
Si       2.24538102       0.57596553      -2.78352725       0.00000000
Si      -2.67229305       0.56200500       2.68093351       0.00000000
Si       0.95783571      -3.47478732      -1.37691407       0.00000000
Si       1.54114803       3.69515844      -0.00565532       0.00000000
Si       1.37398005       0.19849365       3.77237541       0.00000000
