10
Lattice="16.28999089631971 0.0 0.0 0.0 16.28999089631971 0.0 0.0 0.0 34.69518985606464" Properties=species:S:1:pos:R:3:initial_magmoms:R:1 pbc="T T T"
Si      -0.07892505       2.14632153      -0.92008225       0.00000000
Si       2.04889104      -0.30555153       1.25784012       0.00000000
Si      -1.78857684      -0.11585448       1.68112167       0.00000000
Si       0.13639617      -1.68583581      -1.81664116       0.00000000
Si       1.10825757      -2.44501497       1.70759411       0.00000000
Si      -0.93946059      -1.99927170       2.81253244       0.00000000
Si       1.23026967      -3.34890472      -0.50825012       0.00000000
Si      -0.42474546       3.69035289       0.83376057       0.00000000
Si      -3.79744335      -0.98039736       0.79611627       0.00000000
Si       4.09858029      -0.49886496       0.05388166       0.00000000
