10
Lattice="16.28999089631971 0.0 0.0 0.0 16.28999089631971 0.0 0.0 0.0 34.69518985606464" Properties=species:S:1:pos:R:3:initial_magmoms:R:1 pbc="T T T"
Si       0.07594398      -1.96419933       1.30634402       0.00000000
Si      -1.74223179      -0.76320279      -1.42510572       0.00000000
Si       1.66021164       0.58034754      -1.60826173       0.00000000
Si      -0.28206135       1.73299536       1.71963335       0.00000000
Si      -1.92200823       1.09916775      -2.83848446       0.00000000
Si      -1.71942579      -1.55290941       2.79070916       0.00000000
Si      -0.99671994       3.52522116       0.32734930       0.00000000
Si       2.20837014      -1.89221382       2.32232383       0.00000000
Si       0.34319772       1.13542929      -3.60111985       0.00000000
Si      -3.76233025      -0.71301330      -0.14429738       0.00000000
