10
Lattice="16.28999089631971 0.0 0.0 0.0 16.28999089631971 0.0 0.0 0.0 34.69518985606464" Properties=species:S:1:pos:R:3:initial_magmoms:R:1 pbc="T T T"
Si       0.93196719      -0.75502521       1.98657829       0.00000000
Si       1.96239114       0.94431501      -0.91824341       0.00000000
Si      -0.57401073      -2.07677952      -1.02666594       0.00000000
Si      -0.99823491       2.11217769      -0.50665414       0.00000000
Si       0.76691691       2.60565066      -2.08705562       0.00000000
Si      -1.17608913      -0.93566502       3.08273873       0.00000000
Si       1.21705848      -2.04507918      -2.67812320       0.00000000
Si       2.13679188       1.12155021       2.77853114       0.00000000
Si       2.99121867       2.14842294       0.85440422       0.00000000
Si       3.19844376      -0.76180185      -1.88582340       0.00000000
