10
Lattice="16.28999089631971 0.0 0.0 0.0 16.28999089631971 0.0 0.0 0.0 34.69518985606464" Properties=species:S:1:pos:R:3:initial_magmoms:R:1 pbc="T T T"
Si      -1.41702542       0.94889250       1.56808468       0.00000000
Si      -1.62164411      -1.30110836      -1.02687411       0.00000000
Si       1.17994986      -1.71827083       1.11597141       0.00000000
Si       1.41561729       1.08162342      -1.68504223       0.00000000
Si      -1.16311319       3.06563139       0.63783673       0.00000000
Si       2.01531735      -1.05224766      -2.53271558       0.00000000
Si       2.94821307      -1.69794417      -0.41478123       0.00000000
Si      -0.11067263      -2.12737365      -2.69821173       0.00000000
Si      -0.18864634       0.53973657       3.51424305       0.00000000
Si       1.81846899      -0.71475633       3.16146216       0.00000000
