10
Lattice="16.28999089631971 0.0 0.0 0.0 16.28999089631971 0.0 0.0 0.0 34.69518985606464" Properties=species:S:1:pos:R:3:initial_magmoms:R:1 pbc="T T T"
Si       1.35690813       1.35483930       1.35588878       0.00000000
Si      -1.35778779      -1.35444834       1.35706841       0.00000000
Si       1.35703845      -1.35711990      -1.35630512       0.00000000
Si      -1.35785295       1.35747828      -1.35592347       0.00000000
Si      -2.70511740      -0.00742824       2.71091017       0.00000000
Si       2.70697446       0.00588069       2.71132652       0.00000000
Si       2.71311579      -0.00206883      -2.71378988       0.00000000
Si      -0.00226431       2.71393029      -2.71306128       0.00000000
Si      -2.71399545      -2.71464705       0.00111025       0.00000000
Si       2.71357191       2.71515204       0.00048573       0.00000000
