10
Lattice="16.28999089631971 0.0 0.0 0.0 16.28999089631971 0.0 0.0 0.0 34.69518985606464" Properties=species:S:1:pos:R:3:initial_magmoms:R:1 pbc="T T T"
Si      -1.47098700      -1.74560382       1.02985790       0.00000000
Si       0.35088660      -0.24721704      -2.50464716       0.00000000
Si       1.97843679      -1.72791288      -0.46345861       0.00000000
Si      -1.68119316       1.82459403       1.50910282       0.00000000
Si       2.24652132       0.54411858       1.91371835       0.00000000
Si      -1.12516659      -3.28963518      -0.72398493       0.00000000
Si       0.85680513      -0.25692588       3.67411857       0.00000000
Si      -0.15397308      -2.30068557       3.02271602       0.00000000
Si       2.81214270       0.45406746      -2.55231837       0.00000000
Si       0.30729456      -2.63723697      -2.89892351       0.00000000
