10
Lattice="16.28999089631971 0.0 0.0 0.0 16.28999089631971 0.0 0.0 0.0 34.69518985606464" Properties=species:S:1:pos:R:3:initial_magmoms:R:1 pbc="T T T"
Si       1.35594702       1.35459152      -1.35738067       0.00000000
Si       1.35767376      -1.35769005       1.35710311       0.00000000
Si      -1.35778779       1.35764776       1.35772762       0.00000000
Si      -1.35923760      -1.36146933      -1.35692963       0.00000000
Si       0.00097740      -2.71101438      -2.71372049       0.00000000
Si      -0.00329058       2.71160638       2.71486543       0.00000000
Si       2.71450044      -0.00027693       2.71476134       0.00000000
Si       2.71549413       2.71445387       0.00013878       0.00000000
Si       2.71498914      -2.71503801       0.00020817       0.00000000
Si      -2.71492561       2.71512176       0.00003470       0.00000000
