10
Lattice="16.28999089631971 0.0 0.0 0.0 16.28999089631971 0.0 0.0 0.0 34.69518985606464" Properties=species:S:1:pos:R:3:initial_magmoms:R:1 pbc="T T T"
Si      -1.36078515      -1.34372952      -1.36785862       0.00000000
Si       1.34982198       1.37595114      -1.36827497       0.00000000
Si      -1.72664226       0.97692759       1.30540725       0.00000000
Si       1.23986448      -1.51436727       1.39519845       0.00000000
Si      -0.70560135      -2.28587796       2.78498445       0.00000000
Si      -0.60413094       2.26492902       2.97004869       0.00000000
Si       2.69557146       2.70739800       0.02099060       0.00000000
Si       2.70119151      -2.72214045      -0.00645331       0.00000000
Si       2.70112635       0.01218492      -2.72575972       0.00000000
Si      -0.00915498      -2.70225036      -2.72940272       0.00000000
