10
Lattice="16.28999089631971 0.0 0.0 0.0 16.28999089631971 0.0 0.0 0.0 34.69518985606464" Properties=species:S:1:pos:R:3:initial_magmoms:R:1 pbc="T T T"
Si       1.58462604      -0.29351322       1.72622544       0.00000000
Si      -0.60448932       2.29146447       0.32061843       0.00000000
Si      -1.98407313      -1.40333463       0.42158149       0.00000000
Si       1.40861259      -0.85418244      -1.85414668       0.00000000
Si      -1.16528886       2.87372609      -2.07730626       0.00000000
Si       3.52966833      -1.15657371       0.62232797       0.00000000
Si       2.44916892       1.89311044       2.15065194       0.00000000
Si       2.56652208      -2.68381008      -0.78494441       0.00000000
Si       1.35529542       3.55617935       0.84226090       0.00000000
Si      -1.97884404       2.12774671       2.60734497       0.00000000
