10
Lattice="16.28999089631971 0.0 0.0 0.0 16.28999089631971 0.0 0.0 0.0 34.69518985606464" Properties=species:S:1:pos:R:3:initial_magmoms:R:1 pbc="T T T"
Si      -0.59276052       2.15842730      -0.54672711       0.00000000
Si       1.58175900      -0.82049472      -1.54931457       0.00000000
Si      -2.04320583      -1.00853019      -0.67274011       0.00000000
Si       0.55710171      -0.51065892       2.37197268       0.00000000
Si      -2.36102373       2.13810064       0.98402552       0.00000000
Si       2.54712069      -1.56652785       1.69767128       0.00000000
Si       1.03713543      -3.11104791      -1.30009888       0.00000000
Si       3.47661180      -0.56417157      -0.21205712       0.00000000
Si      -3.48013858      -0.00565263       0.96161242       0.00000000
Si      -1.36914192      -3.26951703      -1.02049019       0.00000000
