10
Lattice="16.28999089631971 0.0 0.0 0.0 16.28999089631971 0.0 0.0 0.0 34.69518985606464" Properties=species:S:1:pos:R:3:initial_magmoms:R:1 pbc="T T T"
Si       2.33800596       0.28572660       0.19519525       0.00000000
Si      -0.35878725      -2.33176689      -0.32044495       0.00000000
Si       0.14454117       1.56805911      -1.81584317       0.00000000
Si      -1.04974389       0.66103191       2.14308838       0.00000000
Si       2.16585324       2.41031727      -0.82984001       0.00000000
Si      -2.64671775      -2.18711169       0.15262423       0.00000000
Si      -3.19687992      -0.37502838       1.59948384       0.00000000
Si       0.97353927      -3.21059610       1.57360122       0.00000000
Si       3.33874953      -1.17428094      -1.36452788       0.00000000
Si       1.12462902       0.72948249      -3.76769155       0.00000000
