10
Lattice="16.28999089631971 0.0 0.0 0.0 16.28999089631971 0.0 0.0 0.0 34.69518985606464" Properties=species:S:1:pos:R:3:initial_magmoms:R:1 pbc="T T T"
Si       1.57936437      -0.01233153      -1.74041578       0.00000000
Si      -1.87304049       1.11639998      -0.93264192       0.00000000
Si       0.64938456       1.34597821       1.87378417       0.00000000
Si      -0.85139685      -2.11882401       0.75899240       0.00000000
Si      -3.03191761      -1.50206832       1.02781088       0.00000000
Si       3.37017294      -1.22515461      -0.73470575       0.00000000
Si      -1.46961864       2.04210530       2.70272211       0.00000000
Si      -3.49749721      -0.63653175      -1.10910175       0.00000000
Si      -2.26712817       2.89387682       0.64491455       0.00000000
Si       0.74756439      -1.34429967      -3.63151286       0.00000000
