10
Lattice="16.28999089631971 0.0 0.0 0.0 16.28999089631971 0.0 0.0 0.0 34.69518985606464" Properties=species:S:1:pos:R:3:initial_magmoms:R:1 pbc="T T T"
Si      -0.39757374       1.64833623       1.62377049       0.00000000
Si      -1.70303805      -1.61958438       0.26205292       0.00000000
Si      -0.06072912       1.57330449      -1.77386196       0.00000000
Si       2.04499773      -1.01963997       0.70747001       0.00000000
Si      -0.90552852      -2.47135590       2.31986047       0.00000000
Si       1.19145060       3.18844170       0.87119670       0.00000000
Si      -2.21088857       1.23629697      -2.61195944       0.00000000
Si       1.21347468      -3.16748299       1.49092253       0.00000000
Si       2.55541230       0.25539462       2.69724026       0.00000000
Si      -3.43171493       1.55776383      -0.59599430       0.00000000
