10
Lattice="16.28999089631971 0.0 0.0 0.0 16.28999089631971 0.0 0.0 0.0 34.69518985606464" Properties=species:S:1:pos:R:3:initial_magmoms:R:1 pbc="T T T"
Si      -0.23253975       0.10321344       2.32839692       0.00000000
Si       1.81216476       1.53688005      -0.09856909       0.00000000
Si       0.39467412      -1.80652842      -1.51326625       0.00000000
Si      -2.13976985       1.10236059      -0.18218454       0.00000000
Si       0.90262890       2.31316371      -2.20935623       0.00000000
Si      -2.03531495       1.68039495       2.14291490       0.00000000
Si      -0.40283541      -0.95475690      -3.57107380       0.00000000
Si       1.65315807       1.08737379       3.42484533       0.00000000
Si      -1.02595723      -1.83682619       3.35811604       0.00000000
Si      -3.73074299      -0.43315110      -1.43242641       0.00000000
