10
Lattice="16.28999089631971 0.0 0.0 0.0 16.28999089631971 0.0 0.0 0.0 34.69518985606464" Properties=species:S:1:pos:R:3:initial_magmoms:R:1 pbc="T T T"
Si      -2.19432816       0.44263188      -0.76718047       0.00000000
Si       0.95847102       2.10494493       0.50915220       0.00000000
Si       1.52878392      -0.62737677      -1.71116772       0.00000000
Si       0.02534724      -1.76869978       1.61405583       0.00000000
Si       1.48742361       1.67410701       2.74747892       0.00000000
Si       0.01295055      -3.57543413       0.12348025       0.00000000
Si       1.62448767      -2.98477502      -1.53446502       0.00000000
Si       0.51425901       0.35758179      -3.69479692       0.00000000
Si      -2.07555777       2.55492360      -1.98720280       0.00000000
Si       2.78184330       2.59444314      -1.12651875       0.00000000
