10
Lattice="16.28999089631971 0.0 0.0 0.0 16.28999089631971 0.0 0.0 0.0 34.69518985606464" Properties=species:S:1:pos:R:3:initial_magmoms:R:1 pbc="T T T"
Si       1.24387182      -0.01152192      -2.00246870       0.00000000
Si       0.06845058       2.42596381       0.31475494       0.00000000
Si      -2.18049795      -1.12238004      -0.09756293       0.00000000
Si       0.35710938       1.49852525       2.56689036       0.00000000
Si       2.02746969      -0.48417610       2.66634456       0.00000000
Si      -2.49300531      -1.16432679       2.36617858       0.00000000
Si       3.49058862      -0.51654026      -1.20312577       0.00000000
Si       3.13176879      -1.90294797       0.83719540       0.00000000
Si      -3.51062532      -0.08938160      -1.87055751       0.00000000
Si      -2.16868770       3.33349600      -0.66423978       0.00000000
