10
Lattice="16.28999089631971 0.0 0.0 0.0 16.28999089631971 0.0 0.0 0.0 34.69518985606464" Properties=species:S:1:pos:R:3:initial_magmoms:R:1 pbc="T T T"
Si       0.68605335       1.94007384      -1.09239601       0.00000000
Si      -0.93755466      -1.73677464      -1.28911573       0.00000000
Si       1.38570885      -1.31098662       1.39662789       0.00000000
Si      -1.35912357       1.39313709       1.39858123       0.00000000
Si       2.49614928      -2.83323825      -0.11741553       0.00000000
Si      -1.50697161      -0.93245589      -3.39592687       0.00000000
Si      -2.69374698      -2.74655916      -0.02816904       0.00000000
Si       0.01585017      -2.66976810       2.77515182       0.00000000
Si      -2.83397130       2.61159651      -0.09255641       0.00000000
Si       2.64691323       2.80846116      -0.02940419       0.00000000
