10
Lattice="16.28999089631971 0.0 0.0 0.0 16.28999089631971 0.0 0.0 0.0 34.69518985606464" Properties=species:S:1:pos:R:3:initial_magmoms:R:1 pbc="T T T"
Si       0.05616792       1.86953814       1.36300130       0.00000000
Si      -1.42003188      -1.35899325       1.25079699       0.00000000
Si      -1.96022457       0.96604587      -1.07024312       0.00000000
Si       2.15304930      -0.63597789      -1.06146523       0.00000000
Si       2.51999784       1.68617790      -1.30169486       0.00000000
Si      -1.10804580      -3.11310045      -0.14075846       0.00000000
Si       2.01982968       2.89307142       0.71593564       0.00000000
Si      -1.10579778       1.99291860      -2.99437003       0.00000000
Si      -3.16504926      -0.91052955      -1.86219597       0.00000000
Si       0.77299308       1.51353648       3.55432785       0.00000000
