10
Lattice="16.28999089631971 0.0 0.0 0.0 16.28999089631971 0.0 0.0 0.0 34.69518985606464" Properties=species:S:1:pos:R:3:initial_magmoms:R:1 pbc="T T T"
Si      -1.35619137      -1.35633798       1.35710311       0.00000000
Si      -1.35277047       1.35871632      -1.36137062       0.00000000
Si       1.35899325       1.35927018       1.35699902       0.00000000
Si       1.35755973      -1.35684297      -1.36227270       0.00000000
Si      -2.71464705       0.00140094       2.71382457       0.00000000
Si       0.00177561      -2.71417464       2.71462256       0.00000000
Si       2.71616202       2.71410948      -0.00058982       0.00000000
Si      -2.71510317      -2.71581993      -0.00045104       0.00000000
Si       0.00172674       2.71632492       2.71500421       0.00000000
Si       2.71640637      -2.71494027      -0.00017348       0.00000000
