10
Lattice="16.28999089631971 0.0 0.0 0.0 16.28999089631971 0.0 0.0 0.0 34.69518985606464" Properties=species:S:1:pos:R:3:initial_magmoms:R:1 pbc="T T T"
Si      -2.13511401       1.01201625      -0.23606620       0.00000000
Si       1.18925145       0.57065499       1.97880656       0.00000000
Si       1.39211082       0.96534540      -1.76990671       0.00000000
Si      -0.74769471      -2.33987931       0.05502660       0.00000000
Si      -2.40319854      -1.26001521      -2.61324316       0.00000000
Si      -3.52483020       0.21097179       1.52433402       0.00000000
Si       3.31131717       1.49652972       1.27262028       0.00000000
Si       1.54173447      -1.48020714       3.20930686       0.00000000
Si       0.44799129       2.64401361       2.77978016       0.00000000
Si      -1.83519882       3.41236404      -0.30229936       0.00000000
