10
Lattice="16.28999089631971 0.0 0.0 0.0 16.28999089631971 0.0 0.0 0.0 34.69518985606464" Properties=species:S:1:pos:R:3:initial_magmoms:R:1 pbc="T T T"
Si      -1.46062656       1.78274502      -0.16778603       0.00000000
Si      -1.16698302      -2.01362319      -0.40100723       0.00000000
Si       0.75349395      -0.12101841       2.23537764       0.00000000
Si       1.92753054       0.25330950      -1.36435441       0.00000000
Si       1.05731874      -2.47085091       2.54045261       0.00000000
Si       0.02849121      -3.67495884       0.76780498       0.00000000
Si      -0.20991294       3.70584468      -0.68970606       0.00000000
Si       3.08856771       0.26174772       2.20654592       0.00000000
Si       3.66942024       1.01682180       0.05724710       0.00000000
Si      -3.07330398       1.44630765      -1.78704614       0.00000000
