10
Lattice="16.28999089631971 0.0 0.0 0.0 16.28999089631971 0.0 0.0 0.0 34.69518985606464" Properties=species:S:1:pos:R:3:initial_magmoms:R:1 pbc="T T T"
Si       0.85442679       1.02687273      -1.92412691       0.00000000
Si      -1.81460826       1.34039007       0.70892721       0.00000000
Si      -1.20482469      -1.87657542      -0.79195285       0.00000000
Si       1.96022457      -0.96604587       1.07024312       0.00000000
Si       2.01639249       0.90349227       2.43324441       0.00000000
Si       0.54019269      -2.32503912       2.32104011       0.00000000
Si       0.10551033       2.57215842       2.27395871       0.00000000
Si      -2.93281902      -0.27634356       2.12941847       0.00000000
Si      -2.13679188      -1.12155021      -2.77853114       0.00000000
Si      -0.17440074      -0.17723520      -3.69677455       0.00000000
