10
Lattice="16.28999089631971 0.0 0.0 0.0 16.28999089631971 0.0 0.0 0.0 34.69518985606464" Properties=species:S:1:pos:R:3:initial_magmoms:R:1 pbc="T T T"
Si      -1.34574948      -1.33144686      -1.38926557       0.00000000
Si       1.36870209       1.38513061      -1.38846758       0.00000000
Si      -1.72898802       1.03679334       1.33916569       0.00000000
Si       1.22420979      -1.51226586       1.60222476       0.00000000
Si       2.20131657       0.21460446       3.00210707       0.00000000
Si      -2.69557146      -2.70739800      -0.02099060       0.00000000
Si       2.71526607      -2.70958086       0.00971466       0.00000000
Si      -2.71363707       2.71832274      -0.02654184       0.00000000
Si       2.70145215       2.73905991      -0.04010766       0.00000000
Si       0.00555489      -2.69521308      -2.74675033       0.00000000
