10
Lattice="16.28999089631971 0.0 0.0 0.0 16.28999089631971 0.0 0.0 0.0 34.69518985606464" Properties=species:S:1:pos:R:3:initial_magmoms:R:1 pbc="T T T"
Si      -1.35575154      -1.35526231      -1.35727659       0.00000000
Si       1.36126247      -1.35425864       1.35845622       0.00000000
Si       1.35855071       1.36034858      -1.35717250       0.00000000
Si      -1.35529542       1.36376948       1.35845622       0.00000000
Si       0.00185706      -2.71245183      -2.71486543       0.00000000
Si       2.71238341      -2.71512339      -0.00076329       0.00000000
Si      -2.71386513       0.00330361      -2.71458787       0.00000000
Si      -2.71596654      -2.71450437       0.00006939       0.00000000
Si       2.71659112       0.00266993      -2.71476134       0.00000000
Si       0.00166158       2.71720784      -2.71493482       0.00000000
