10
Lattice="16.28999089631971 0.0 0.0 0.0 16.28999089631971 0.0 0.0 0.0 34.69518985606464" Properties=species:S:1:pos:R:3:initial_magmoms:R:1 pbc="T T T"
Si       0.80347167      -1.83223145       1.21263226       0.00000000
Si       1.60275681       1.07884760      -1.39415759       0.00000000
Si      -1.28519955      -1.54570664      -1.30360310       0.00000000
Si      -1.82182473       1.36602401       1.75464082       0.00000000
Si       1.40582700      -0.16530766       2.77603308       0.00000000
Si       1.84540208       2.14105334       2.07942267       0.00000000
Si      -0.82463238      -0.13101721       3.49994862       0.00000000
Si      -2.36498220      -0.09082001      -2.72603729       0.00000000
Si      -1.18107387      -2.99753660       1.97179813       0.00000000
Si       0.37133055       2.61644441      -2.70959176       0.00000000
