10
Lattice="16.28999089631971 0.0 0.0 0.0 16.28999089631971 0.0 0.0 0.0 34.69518985606464" Properties=species:S:1:pos:R:3:initial_magmoms:R:1 pbc="T T T"
Si      -0.08110791       1.10285581       1.99136623       0.00000000
Si       2.23045938      -0.03429045      -0.72391554       0.00000000
Si      -0.74609829      -2.20112176       0.72197261       0.00000000
Si      -0.99719235       1.49704123      -1.74530781       0.00000000
Si       1.72406844      -0.40826324       2.73051297       0.00000000
Si      -0.35644149      -2.86651939      -1.52815049       0.00000000
Si       1.62810405      -1.70121424      -2.28731636       0.00000000
Si       0.82463238       0.13101721      -3.49994862       0.00000000
Si       3.23503992      -1.23452853       1.05917535       0.00000000
Si       0.39837195       3.38632285      -1.30113974       0.00000000
