10
Lattice="16.28999089631971 0.0 0.0 0.0 16.28999089631971 0.0 0.0 0.0 34.69518985606464" Properties=species:S:1:pos:R:3:initial_magmoms:R:1 pbc="T T T"
Si      -1.78930989       1.02302829      -1.08006186       0.00000000
Si       2.12548662       0.85524129      -0.51751374       0.00000000
Si      -0.42862248       0.54330408       2.27968342       0.00000000
Si      -0.12678507      -2.40463925      -0.15106294       0.00000000
Si       1.63844820      -0.34801956       2.99468229       0.00000000
Si      -2.48964957      -0.55122102       2.46648243       0.00000000
Si      -3.50417448       0.43373754       0.48285323       0.00000000
Si       3.35386569       0.44608536       1.42864463       0.00000000
Si      -2.12574726       0.02085120      -3.12659348       0.00000000
Si       0.11569158       0.11635947      -3.85161926       0.00000000
