10
Lattice="16.28999089631971 0.0 0.0 0.0 16.28999089631971 0.0 0.0 0.0 34.69518985606464" Properties=species:S:1:pos:R:3:initial_magmoms:R:1 pbc="T T T"
Si      -2.06102709      -1.09452510       0.18679901       0.00000000
Si       2.06707068      -0.89132364       0.71499887       0.00000000
Si       0.42862248      -0.54330408      -2.27968342       0.00000000
Si      -0.80796771       2.12729481       0.77144798       0.00000000
Si      -3.07555200      -0.10956654      -1.79683019       0.00000000
Si      -1.36068741       0.47972421      -3.35974528       0.00000000
Si       1.18003131       3.32096085       1.36959338       0.00000000
Si       2.55410910       0.31193721      -2.79719716       0.00000000
Si       1.72384038      -3.23503829       1.09331543       0.00000000
Si       0.30183741      -2.94794333      -2.43074636       0.00000000
