10
Lattice="16.28999089631971 0.0 0.0 0.0 16.28999089631971 0.0 0.0 0.0 34.69518985606464" Properties=species:S:1:pos:R:3:initial_magmoms:R:1 pbc="T T T"
Si       1.35811359       1.35615879      -1.35689494       0.00000000
Si      -1.35651717       1.35692442       1.35790110       0.00000000
Si       1.35798327      -1.35876519       1.35717250       0.00000000
Si      -1.35904212      -1.35874890      -1.35647860       0.00000000
Si      -0.00161271      -2.71520091       2.71274902       0.00000000
Si      -2.71228500       0.00024435      -2.71625324       0.00000000
Si      -2.71448415       2.71476108       0.00038165       0.00000000
Si      -2.71384884      -2.71544526       0.00010409       0.00000000
Si       2.71394658      -0.00158013       2.71542055       0.00000000
Si       2.71560816      -2.71533123       0.00020817       0.00000000
