10
Lattice="16.28999089631971 0.0 0.0 0.0 16.28999089631971 0.0 0.0 0.0 34.69518985606464" Properties=species:S:1:pos:R:3:initial_magmoms:R:1 pbc="T T T"
Si      -1.33107219      -1.35997065      -1.38281226       0.00000000
Si       1.38153861       1.35824391      -1.37445071       0.00000000
Si       1.15530309      -1.56998133       1.35849092       0.00000000
Si      -1.85383458       0.94620465       1.34853339       0.00000000
Si       0.94742640       1.85279202       3.07774262       0.00000000
Si      -2.70047475       2.69542485      -0.01620266       0.00000000
Si      -2.69874801      -2.70055620      -0.01828438       0.00000000
Si      -3.51808614      -0.82042956       1.26071982       0.00000000
Si      -2.69736336       0.00024435      -2.73658463       0.00000000
Si       2.12913558      -0.38692008       3.17891385       0.00000000
