10
Lattice="16.28999089631971 0.0 0.0 0.0 16.28999089631971 0.0 0.0 0.0 34.69518985606464" Properties=species:S:1:pos:R:3:initial_magmoms:R:1 pbc="T T T"
Si      -1.39556430      -1.88928162      -0.44416807       0.00000000
Si       0.19505646       1.69292196      -1.71706591       0.00000000
Si       2.27166251      -1.11425229      -0.11938622       0.00000000
Si      -1.47067749       1.66413753       1.31772405       0.00000000
Si      -0.54271764       0.11730429       3.09626986       0.00000000
Si      -2.49342885      -0.69239016      -2.25515391       0.00000000
Si      -0.39837195      -3.38632285       1.30113974       0.00000000
Si      -0.77877603       0.50986071      -3.53748884       0.00000000
Si       3.29207772      -0.02326212       1.73580132       0.00000000
Si       1.68520050       0.84791079       3.29139572       0.00000000
