10
Lattice="16.28999089631971 0.0 0.0 0.0 16.28999089631971 0.0 0.0 0.0 34.69518985606464" Properties=species:S:1:pos:R:3:initial_magmoms:R:1 pbc="T T T"
Si       0.36694854       2.32215579      -0.24022963       0.00000000
Si       0.02132361      -0.36312039      -2.35514550       0.00000000
Si       2.02199424      -0.13396896       1.31245038       0.00000000
Si      -2.15304930       0.63597789       1.06146523       0.00000000
Si       2.16713268      -1.27254222      -2.16772198       0.00000000
Si       3.31763510       0.10634112      -0.60855397       0.00000000
Si      -0.92323575       3.02674716      -2.05614219       0.00000000
Si       2.15887511      -2.39277294       2.07921450       0.00000000
Si      -1.96667541      -1.55678643      -2.95329091       0.00000000
Si      -0.13321962       3.52904931       1.77740087       0.00000000
