10
Lattice="16.28999089631971 0.0 0.0 0.0 16.28999089631971 0.0 0.0 0.0 34.69518985606464" Properties=species:S:1:pos:R:3:initial_magmoms:R:1 pbc="T T T"
Si      -0.06180426       1.54256526       1.79134835       0.00000000
Si       2.32295400       0.21590766      -0.52656919       0.00000000
Si      -0.74312536      -2.10163806       1.16995715       0.00000000
Si      -1.75509144       0.87889437      -1.81539213       0.00000000
Si      -2.28546161       1.11966057       2.46877231       0.00000000
Si      -1.76354058      -3.19262823      -0.68523038       0.00000000
Si      -2.35000259      -1.23046515       2.72555155       0.00000000
Si       2.67229305      -0.56200500      -2.68093351       0.00000000
Si       1.43524674       1.14425847       3.60792011       0.00000000
Si      -3.26351321       2.44403757      -0.81058417       0.00000000
