10
Lattice="16.28999089631971 0.0 0.0 0.0 16.28999089631971 0.0 0.0 0.0 34.69518985606464" Properties=species:S:1:pos:R:3:initial_magmoms:R:1 pbc="T T T"
Si      -0.95265549       2.16399618       0.33158211       0.00000000
Si       0.20921247      -0.99994536       2.17466102       0.00000000
Si       1.86022305       0.30094146      -1.53991217       0.00000000
Si      -1.70999388      -1.53112968      -0.86786596       0.00000000
Si       0.92981691      -3.14957376       1.59851238       0.00000000
Si       0.73449981      -0.25827795      -3.59945448       0.00000000
Si      -2.88450288       1.52772507       1.71040443       0.00000000
Si      -2.99993382      -0.20385306      -2.43841400       0.00000000
Si      -0.56277063      -3.34309896      -1.95760779       0.00000000
Si      -1.91285325      -1.92582009       2.88084731       0.00000000
