10
Lattice="16.28999089631971 0.0 0.0 0.0 16.28999089631971 0.0 0.0 0.0 34.69518985606464" Properties=species:S:1:pos:R:3:initial_magmoms:R:1 pbc="T T T"
Si       0.95265549      -2.16399618      -0.33158211       0.00000000
Si       1.35179307       1.41881013       1.42729152       0.00000000
Si      -1.93184739      -0.63627111       1.37882231       0.00000000
Si      -0.59220666       1.50547293      -1.93748457       0.00000000
Si      -2.25386811       1.49402106       2.28329172       0.00000000
Si      -2.88305307       1.60076943      -1.58515472       0.00000000
Si       1.87796007       3.29833145       0.07105579       0.00000000
Si      -0.16969293       2.28845178       3.03246537       0.00000000
Si       1.16186796      -3.16394154       1.84307891       0.00000000
Si       2.81287854      -1.86305472      -1.87149428       0.00000000
