10
Lattice="16.28999089631971 0.0 0.0 0.0 16.28999089631971 0.0 0.0 0.0 34.69518985606464" Properties=species:S:1:pos:R:3:initial_magmoms:R:1 pbc="T T T"
Si      -0.58085253      -0.75507408       2.14929882       0.00000000
Si      -1.74188970      -0.76351230      -1.42160150       0.00000000
Si      -0.31232817       2.35322082       0.28842127       0.00000000
Si       2.03947542      -1.05969708      -0.81224954       0.00000000
Si       1.12143618      -1.91099619      -2.92876139       0.00000000
Si      -1.00062954      -2.83687092      -2.22257510       0.00000000
Si      -3.66942024      -1.01682180      -0.05724710       0.00000000
Si      -2.91592629      -1.13784021       2.17813054       0.00000000
Si       3.75571230       0.65047599      -0.57042394       0.00000000
Si      -0.27649017      -3.08982204       2.35996813       0.00000000
