10
Lattice="16.28999089631971 0.0 0.0 0.0 16.28999089631971 0.0 0.0 0.0 34.69518985606464" Properties=species:S:1:pos:R:3:initial_magmoms:R:1 pbc="T T T"
Si       0.96732856      -1.62570942      -1.40043743       0.00000000
Si      -1.43721783      -1.27677762       1.39882206       0.00000000
Si       1.36063269       1.38964356       1.44939379       0.00000000
Si      -0.88778871       0.45469041      -3.20465770       0.00000000
Si       1.29881703      -0.42650478      -3.41726994       0.00000000
Si       2.66316155      -2.60306055      -0.01030448       0.00000000
Si       0.09846237      -2.54011599       2.92001616       0.00000000
Si      -3.05665560      -2.40132519      -0.15834893       0.00000000
Si      -2.60757288       0.18202446       2.92785381       0.00000000
Si       2.15405018       3.32968319       0.41967468       0.00000000
