10
Lattice="16.28999089631971 0.0 0.0 0.0 16.28999089631971 0.0 0.0 0.0 34.69518985606464" Properties=species:S:1:pos:R:3:initial_magmoms:R:1 pbc="T T T"
Si      -1.35580204      -1.35666867       1.35668677       0.00000000
Si      -1.35254730       1.35900954      -1.36098897       0.00000000
Si       1.35871632       1.35845568       1.35696433       0.00000000
Si       1.35913986      -1.35457214      -1.36317477       0.00000000
Si      -2.71384244       0.00100998       2.71427561       0.00000000
Si       0.00133578      -2.71414267       2.71437970       0.00000000
Si      -2.71336338       2.71521720      -0.00048573       0.00000000
Si       2.71511946       2.71450044      -0.00114494       0.00000000
Si       0.00314397       2.71590138       2.71403274       0.00000000
Si       2.71642266       0.00091224       2.71448378       0.00000000
