10
Lattice="16.28999089631971 0.0 0.0 0.0 16.28999089631971 0.0 0.0 0.0 34.69518985606464" Properties=species:S:1:pos:R:3:initial_magmoms:R:1 pbc="T T T"
Si       0.97678098       1.58640165       1.47350349       0.00000000
Si      -1.82581089       0.74992644      -1.35505609       0.00000000
Si       1.69210746      -1.72802691      -0.15800198       0.00000000
Si      -1.73578421      -1.13239935       1.31779833       0.00000000
Si       2.20377636       0.95180841      -1.47687097       0.00000000
Si       2.04221214       2.91113703      -0.11817188       0.00000000
Si      -0.22348251      -2.26022121       2.77694005       0.00000000
Si      -0.85051719       2.07803385      -3.00831751       0.00000000
Si       2.52446130       0.43758198       2.77108350       0.00000000
Si       1.01178819      -3.57415632       1.32897713       0.00000000
