10
Lattice="16.28999089631971 0.0 0.0 0.0 16.28999089631971 0.0 0.0 0.0 34.69518985606464" Properties=species:S:1:pos:R:3:initial_magmoms:R:1 pbc="T T T"
Si       1.33779996       1.34995230      -1.37494686       0.00000000
Si      -1.36021500       1.34954505       1.35679085       0.00000000
Si       1.35477414      -1.36270737       1.35692963       0.00000000
Si      -1.36902789      -1.36857177      -1.36905561       0.00000000
Si       2.44496610      -0.22020822      -2.76660986       0.00000000
Si      -0.00097740       2.71101438       2.71372049       0.00000000
Si      -2.71641289       2.71135647      -0.00967996       0.00000000
Si       2.71401174      -0.00402363       2.71392866       0.00000000
Si      -2.71596328      -0.00412137       2.71375518       0.00000000
Si       2.71599912       2.71379997       0.00034695       0.00000000
