10
Lattice="16.28999089631971 0.0 0.0 0.0 16.28999089631971 0.0 0.0 0.0 34.69518985606464" Properties=species:S:1:pos:R:3:initial_magmoms:R:1 pbc="T T T"
Si       1.74004893      -0.90512127      -1.28171042       0.00000000
Si       1.55427777       1.07613369       1.45882946       0.00000000
Si      -0.98314385       1.82840589      -1.26852624       0.00000000
Si      -1.83974047      -1.79994726       0.10415502       0.00000000
Si       0.39079710      -2.23858809      -2.64974252       0.00000000
Si      -2.34217679       0.49287024      -2.64471172       0.00000000
Si       3.02590008      -2.36810988       0.22659441       0.00000000
Si       2.73533535       2.80285740       0.03004605       0.00000000
Si      -0.96924360      -3.58254567      -1.25700743       0.00000000
Si      -2.37331358       3.13002576       0.20976724       0.00000000
