10
Lattice="16.28999089631971 0.0 0.0 0.0 16.28999089631971 0.0 0.0 0.0 34.69518985606464" Properties=species:S:1:pos:R:3:initial_magmoms:R:1 pbc="T T T"
Si       0.93854835       0.73969632      -2.05312370       0.00000000
Si       1.72908576      -0.96075162       1.45993971       0.00000000
Si      -0.67792464       1.92704184       1.38066116       0.00000000
Si      -1.16364357      -1.79385480      -1.43020592       0.00000000
Si      -1.92143319       0.51464997       2.84123028       0.00000000
Si       1.89064998      -2.92008024       0.10124062       0.00000000
Si      -3.43579625       0.76069413      -0.49582924       0.00000000
Si      -3.15175760      -0.99761589       1.31526069       0.00000000
Si       0.88746291      -2.87775882      -2.12293046       0.00000000
Si      -2.37375762       2.90439297      -0.00947179       0.00000000
