10
Lattice="16.28999089631971 0.0 0.0 0.0 16.28999089631971 0.0 0.0 0.0 34.69518985606464" Properties=species:S:1:pos:R:3:initial_magmoms:R:1 pbc="T T T"
Si       1.35594702      -1.31823567       1.50990775       0.00000000
Si       1.75185918       0.85967217      -1.44484525       0.00000000
Si      -1.33558452       1.39760055       1.49327487       0.00000000
Si      -1.50286653      -1.39225743      -1.44095939       0.00000000
Si       2.73183300       2.58771604      -0.01095675       0.00000000
Si       3.41267355      -1.11549033      -1.15065551       0.00000000
Si       2.46311316      -2.88839619       0.11824474       0.00000000
Si      -2.80539538       2.60044668       0.01873888       0.00000000
Si      -2.74637508      -2.80464930       0.01960973       0.00000000
Si       0.01814706      -2.66818797       2.88485461       0.00000000
