10
Lattice="16.28999089631971 0.0 0.0 0.0 16.28999089631971 0.0 0.0 0.0 34.69518985606464" Properties=species:S:1:pos:R:3:initial_magmoms:R:1 pbc="T T T"
Si      -1.35954652       1.35617797       1.36570752       0.00000000
Si       1.35619789      -1.36181142       1.36647082       0.00000000
Si       1.36268131       1.35443205      -1.38189978       0.00000000
Si      -1.36929988      -1.37248137      -1.38581340       0.00000000
Si      -0.10712956       2.55727818      -2.85643576       0.00000000
Si       2.71641289      -2.71135647       0.00967996       0.00000000
Si      -2.71336081      -2.71459818       0.01061673       0.00000000
Si      -2.71305130       2.71875769       0.00801459       0.00000000
Si       2.71545178       2.71687619       0.00357361       0.00000000
Si      -2.71422418      -0.00034209       2.72333106       0.00000000
