10
Lattice="16.28999089631971 0.0 0.0 0.0 16.28999089631971 0.0 0.0 0.0 34.25627252547053" Properties=species:S:1:pos:R:3:initial_magmoms:R:1 pbc="T T T"
Si      -1.29227821       1.32172173       1.38402270       0.00000000
Si       1.33797426       1.35215145      -1.34743698       0.00000000
Si       1.42673847      -1.29668335       1.34181894       0.00000000
Si      -1.37780398      -1.36619648      -1.34161341       0.00000000
Si      -2.06719678      -0.66194415       2.51132874       0.00000000
Si      -0.28097318      -2.28481001       2.53695245       0.00000000
Si       2.69488239       2.69521308       0.05296023       0.00000000
Si       2.69317194      -0.00319447      -2.70244459       0.00000000
Si      -0.02084794       2.70835911      -2.70354079       0.00000000
Si      -0.02153864      -2.71991591      -2.70312972       0.00000000
