10
Lattice="16.28999089631971 0.0 0.0 0.0 16.28999089631971 0.0 0.0 0.0 34.25627252547053" Properties=species:S:1:pos:R:3:initial_magmoms:R:1 pbc="T T T"
Si      -1.54794422       1.72139688       0.55464362       0.00000000
Si       1.65358161       1.40594103       0.98428603       0.00000000
Si       0.75222333      -0.45449100      -2.24087532       0.00000000
Si      -0.63752544      -1.89125271       1.35702874       0.00000000
Si       1.04226678       1.64520855       3.20700551       0.00000000
Si      -1.20870823       2.13781815       2.84693763       0.00000000
Si      -0.69708168       3.74030359      -0.34167225       0.00000000
Si       1.17312435      -2.34901800       2.78003509       0.00000000
Si       3.01615866      -1.17086004      -2.04427846       0.00000000
Si       0.55229616       1.58133546      -3.54778710       0.00000000
