10
Lattice="16.28999089631971 0.0 0.0 0.0 16.28999089631971 0.0 0.0 0.0 34.25627252547053" Properties=species:S:1:pos:R:3:initial_magmoms:R:1 pbc="T T T"
Si      -2.29041051      -0.38763684      -0.25640834       0.00000000
Si       0.33923599       0.41642127       2.29229401       0.00000000
Si       0.85086254       2.01890671      -0.89631587       0.00000000
Si       1.54794422      -1.72139688      -0.55464362       0.00000000
Si       3.20152583      -0.31545585       0.42964241       0.00000000
Si       3.12695021       1.98322183      -0.04463595       0.00000000
Si       2.59021100      -0.07618833       2.65236190       0.00000000
Si       0.71607256       1.64631042      -3.25099059       0.00000000
Si      -2.67289971      -0.27313443      -2.59717501       0.00000000
Si      -3.44665842       1.28287008       0.89991278       0.00000000
