10
Lattice="16.28999089631971 0.0 0.0 0.0 16.28999089631971 0.0 0.0 0.0 34.25627252547053" Properties=species:S:1:pos:R:3:initial_magmoms:R:1 pbc="T T T"
Si       1.83475899       0.45849834      -1.29481931       0.00000000
Si       0.97769322       0.57212109       2.06176497       0.00000000
Si      -1.66845275       1.28063835      -1.13878190       0.00000000
Si       0.73840941      -2.51125011      -0.54717575       0.00000000
Si       1.38204360      -1.42956153      -2.59464004       0.00000000
Si      -0.93820463      -0.26513604       3.17047259       0.00000000
Si      -2.55939425      -1.33736013       1.76991982       0.00000000
Si      -1.58877836      -3.05315325       0.14956297       0.00000000
Si       1.25118603       2.56466502      -2.16766962       0.00000000
Si      -2.34672830      -0.41647014      -2.68682372       0.00000000
