10
Lattice="16.28999089631971 0.0 0.0 0.0 16.28999089631971 0.0 0.0 0.0 34.25627252547053" Properties=species:S:1:pos:R:3:initial_magmoms:R:1 pbc="T T T"
Si      -1.05388155       1.55246958      -1.41281853       0.00000000
Si      -1.37855754      -1.33757679       1.37046406       0.00000000
Si       1.34245890       1.37500632       1.37070385       0.00000000
Si       1.35596331      -1.44868599      -1.34318577       0.00000000
Si       2.36121921       0.13528845      -2.95540131       0.00000000
Si      -0.01244556      -2.70006960       2.72971945       0.00000000
Si       2.70102861       0.01594791       2.73009627       0.00000000
Si       2.69275329       2.73900060      -0.00994803       0.00000000
Si      -2.70961344       2.72253141      -0.00487467       0.00000000
Si      -2.74043412      -2.69154793      -0.01344902       0.00000000
