10
Lattice="16.28999089631971 0.0 0.0 0.0 16.28999089631971 0.0 0.0 0.0 34.25627252547053" Properties=species:S:1:pos:R:3:initial_magmoms:R:1 pbc="T T T"
Si       1.29227821      -1.32172173      -1.38402270       0.00000000
Si       1.20329082       1.32398604       1.57763926       0.00000000
Si      -0.77491858      -1.98366588       1.12730605       0.00000000
Si      -1.44862411       1.38448710      -1.34551862       0.00000000
Si      -0.93786745       1.33843527       2.91072285       0.00000000
Si      -0.72987673      -1.13417170       3.32683402       0.00000000
Si       2.50097503       2.72271060       0.06758766       0.00000000
Si       2.71901668      -2.61840508      -0.04220375       0.00000000
Si       2.63025247       0.03042972      -2.73145967       0.00000000
Si      -0.08552578      -2.68791821      -2.72563610       0.00000000
