10
Lattice="16.28999089631971 0.0 0.0 0.0 16.28999089631971 0.0 0.0 0.0 34.25627252547053" Properties=species:S:1:pos:R:3:initial_magmoms:R:1 pbc="T T T"
Si       1.35702216       1.35563751      -1.35651489       0.00000000
Si      -1.35769005       1.35757602       1.35737130       0.00000000
Si      -1.35775521      -1.35786924      -1.35716576       0.00000000
Si       1.35796698      -1.35778779       1.35720002       0.00000000
Si       2.71518462       0.00120546      -2.71320107       0.00000000
Si       2.71428867      -0.00094482       2.71460558       0.00000000
Si      -2.71469592      -0.00057015       2.71440004       0.00000000
Si      -0.00131949       2.71467963      -2.71446855       0.00000000
Si      -0.00013032      -2.71228500      -2.71738034       0.00000000
Si      -2.71508688       2.71459818       0.00010277       0.00000000
