10
Lattice="16.28999089631971 0.0 0.0 0.0 16.28999089631971 0.0 0.0 0.0 34.25627252547053" Properties=species:S:1:pos:R:3:initial_magmoms:R:1 pbc="T T T"
Si      -1.35646830       1.35658233      -1.36316061       0.00000000
Si       1.35975888      -1.35848826      -1.36278380       0.00000000
Si       1.34644995       1.37090124       1.36819629       0.00000000
Si      -1.35610992      -1.37231847       1.39347743       0.00000000
Si       2.65000833      -0.05015691       2.69922450       0.00000000
Si      -2.71151937       2.71311579       0.00051384       0.00000000
Si      -2.71301805      -2.71538010      -0.00691977       0.00000000
Si       2.71538010      -2.71523349      -0.00781043       0.00000000
Si       2.71981098       2.71160082      -0.00318584       0.00000000
Si       0.00053757       2.71472850      -2.72018935       0.00000000
