10
Lattice="16.28999089631971 0.0 0.0 0.0 16.28999089631971 0.0 0.0 0.0 34.25627252547053" Properties=species:S:1:pos:R:3:initial_magmoms:R:1 pbc="T T T"
Si       1.31510799       1.22595282      -1.49408816       0.00000000
Si      -1.28293524      -1.58304591      -1.27567005       0.00000000
Si       1.65778443      -0.81894717       1.62172710       0.00000000
Si      -0.20825136      -2.36623653       1.92845794       0.00000000
Si       3.10954923       2.06239545      -0.20313981       0.00000000
Si       0.01154961       2.64701097      -2.82511637       0.00000000
Si      -2.69101026      -0.09620874      -2.79983523       0.00000000
Si       2.72704374      -0.09599697      -2.83621541       0.00000000
Si      -1.90557162      -3.45763558       0.21214921       0.00000000
Si       0.04463460      -2.79876698      -2.81535333       0.00000000
