10
Lattice="16.28999089631971 0.0 0.0 0.0 16.28999089631971 0.0 0.0 0.0 34.25627252547053" Properties=species:S:1:pos:R:3:initial_magmoms:R:1 pbc="T T T"
Si      -1.38637674      -1.80379170      -0.43337635       0.00000000
Si       0.03179808       0.65218644       2.25166605       0.00000000
Si       2.34549936      -0.18454941      -0.30775852       0.00000000
Si      -1.30478013       1.45098288      -1.37782231       0.00000000
Si      -0.54736029      -1.45142271       3.11081385       0.00000000
Si      -3.41026263      -0.84295863       0.20817548       0.00000000
Si      -0.92939337       0.23166009      -3.41059065       0.00000000
Si      -0.54058365       3.48127074      -0.45523186       0.00000000
Si       2.67270030       1.58772114      -1.80215499       0.00000000
Si      -1.55497824      -2.05058520      -2.72375201       0.00000000
