10
Lattice="16.28999089631971 0.0 0.0 0.0 16.28999089631971 0.0 0.0 0.0 34.25627252547053" Properties=species:S:1:pos:R:3:initial_magmoms:R:1 pbc="T T T"
Si      -2.23229105       0.10013952      -0.79639027       0.00000000
Si       1.29816639      -1.71719962      -1.09198781       0.00000000
Si       1.20256038       2.04029155      -0.51446099       0.00000000
Si      -0.52411446      -0.18171006       2.39725529       0.00000000
Si      -0.29912350       2.55829726      -2.54558503       0.00000000
Si      -1.76554997       3.00501793       1.04077465       0.00000000
Si       2.93451318      -0.39908056       2.14310786       0.00000000
Si       3.39512922       1.36230175       0.63346735       0.00000000
Si      -2.44028177       2.57274649      -1.21250144       0.00000000
Si      -2.24103878       1.37702791       2.68747459       0.00000000
