10
Lattice="16.28999089631971 0.0 0.0 0.0 16.28999089631971 0.0 0.0 0.0 34.25627252547053" Properties=species:S:1:pos:R:3:initial_magmoms:R:1 pbc="T T T"
Si      -1.64261844       1.50153075      -0.76891672       0.00000000
Si       1.92471237       0.75096900      -1.16601566       0.00000000
Si      -0.56314530      -2.17626255      -0.76569663       0.00000000
Si       0.15405453       0.83913048       2.52760048       0.00000000
Si      -0.42520158       3.42037872      -0.11506688       0.00000000
Si      -2.88350919      -2.03473503      -0.47749845       0.00000000
Si       3.75847767      -0.23097591      -0.10311144       0.00000000
Si      -1.98865062       0.99419499      -3.05271518       0.00000000
Si       1.85578938       3.12709356      -1.21791394       0.00000000
Si       1.77686433       0.21339900      -3.44974560       0.00000000
