10
Lattice="16.28999089631971 0.0 0.0 0.0 16.28999089631971 0.0 0.0 0.0 34.25627252547053" Properties=species:S:1:pos:R:3:initial_magmoms:R:1 pbc="T T T"
Si      -1.34742735      -1.34952876      -1.36030021       0.00000000
Si      -1.35407367       1.35841190       1.35384290       0.00000000
Si       1.35777150      -1.35542574       1.35473357       0.00000000
Si       1.38776139       1.33555194      -1.35022886       0.00000000
Si       0.01433520       2.60979551      -2.71906232       0.00000000
Si      -2.71164969      -2.71340901      -0.00691977       0.00000000
Si      -2.71376739       0.00076563       2.71210487       0.00000000
Si       0.00125433      -2.71427238       2.71224189       0.00000000
Si       0.00118917       2.71590694       2.71210487       0.00000000
Si       2.71593396       0.00083079       2.71241317       0.00000000
