10
Lattice="16.28999089631971 0.0 0.0 0.0 16.28999089631971 0.0 0.0 0.0 34.25627252547053" Properties=species:S:1:pos:R:3:initial_magmoms:R:1 pbc="T T T"
Si      -1.25676200       1.33539393       1.52721057       0.00000000
Si      -1.95027042      -1.01711828      -1.07709900       0.00000000
Si       0.57660899       1.83341181      -1.54034927       0.00000000
Si       1.44286231      -1.37105935       1.51084634       0.00000000
Si      -2.55321219       2.68590009       0.05467647       0.00000000
Si      -2.61535854      -0.02156633       2.89616392       0.00000000
Si       0.77954981       0.91455807      -3.72463319       0.00000000
Si       2.79092497      -2.76044054       0.13504858       0.00000000
Si      -3.59956776       0.94865304      -1.31531969       0.00000000
Si      -2.72609796      -2.85187631       0.26429072       0.00000000
