10
Lattice="16.28999089631971 0.0 0.0 0.0 16.28999089631971 0.0 0.0 0.0 34.25627252547053" Properties=species:S:1:pos:R:3:initial_magmoms:R:1 pbc="T T T"
Si       0.25326063       2.21070124       0.63343309       0.00000000
Si       1.92640653      -0.96768043      -0.98099742       0.00000000
Si       0.04983111      -1.03572376       2.18836042       0.00000000
Si      -1.48895487      -0.18858233      -1.92188073       0.00000000
Si      -0.91435770       2.29114126       2.67401187       0.00000000
Si      -3.27347550       0.21359285       1.58037976       0.00000000
Si      -0.26220384      -3.30496963       1.61381390       0.00000000
Si      -3.10054086      -1.77532234      -1.37268386       0.00000000
Si       3.25741356      -2.07465109       0.63466632       0.00000000
Si       2.49248403       2.88585658       0.88405212       0.00000000
