10
Lattice="16.28999089631971 0.0 0.0 0.0 16.28999089631971 0.0 0.0 0.0 34.25627252547053" Properties=species:S:1:pos:R:3:initial_magmoms:R:1 pbc="T T T"
Si      -2.24163432       0.19761399      -0.43498639       0.00000000
Si       1.23476571       1.79678700       0.82023265       0.00000000
Si       1.16761833      -0.08044002      -2.04057878       0.00000000
Si      -0.09306477      -2.02794373       1.26895581       0.00000000
Si      -2.35911780      -2.07754841      -1.09363211       0.00000000
Si       3.25462797       0.70064919       0.58437808       0.00000000
Si      -2.79914328       1.51102782       1.42379425       0.00000000
Si       0.96418881      -3.32686502      -0.48565145       0.00000000
Si      -2.17484532       1.47445677      -2.42144023       0.00000000
Si       0.91435770      -2.29114126      -2.67401187       0.00000000
