10
Lattice="16.28999089631971 0.0 0.0 0.0 16.28999089631971 0.0 0.0 0.0 34.25627252547053" Properties=species:S:1:pos:R:3:initial_magmoms:R:1 pbc="T T T"
Si       1.32405120       0.45800638       1.90927442       0.00000000
Si       0.09306477       2.02794373      -1.26895581       0.00000000
Si       1.05725358      -1.29892129      -1.75460726       0.00000000
Si      -2.06228142      -0.93765796       0.91450596       0.00000000
Si      -2.26605303      -0.04960468      -2.36258792       0.00000000
Si       3.28491108       0.55004814       0.27884621       0.00000000
Si      -2.14856955       2.22555772      -1.70394220       0.00000000
Si       2.03248701      -1.71350179       2.51225366       0.00000000
Si      -3.42039501      -1.54721347      -0.91457447       0.00000000
Si       3.41985744      -1.43601793      -1.08897326       0.00000000
