10
Lattice="16.28999089631971 0.0 0.0 0.0 16.28999089631971 0.0 0.0 0.0 34.25627252547053" Properties=species:S:1:pos:R:3:initial_magmoms:R:1 pbc="T T T"
Si      -1.55404971       1.58229657      -0.71150318       0.00000000
Si       1.79207919       0.20198786       1.50576956       0.00000000
Si      -1.44322884      -1.28722670       1.40101382       0.00000000
Si       1.31110065      -0.20858205      -2.14958230       0.00000000
Si       2.76438042      -1.79438327       0.64254526       0.00000000
Si       2.42310492       2.32412688       0.74332727       0.00000000
Si       2.01953646      -2.38009022      -1.54660306       0.00000000
Si       2.38910769       2.05560252      -1.62285756       0.00000000
Si      -3.11539734       0.09767647      -1.75238060       0.00000000
Si      -2.56246587       2.36506365       1.24048883       0.00000000
