10
Lattice="16.28999089631971 0.0 0.0 0.0 16.28999089631971 0.0 0.0 0.0 34.25627252547053" Properties=species:S:1:pos:R:3:initial_magmoms:R:1 pbc="T T T"
Si       0.07457562      -2.29867768       0.47427836       0.00000000
Si       1.53406188       0.70809046      -1.65868964       0.00000000
Si      -2.27608767       0.03568487      -0.85167992       0.00000000
Si       1.36440153       0.81054153       1.88265728       0.00000000
Si      -0.53673921      -2.05941016       2.69699784       0.00000000
Si       2.33280945      -2.61574624       0.46280250       0.00000000
Si       0.22724550       2.34759588      -2.71994956       0.00000000
Si       3.20623038      -0.67681270       1.49470477       0.00000000
Si      -0.03613122       0.12738617       3.62441843       0.00000000
Si      -3.12695021      -1.98322183       0.04463595       0.00000000
