10
Lattice="16.28999089631971 0.0 0.0 0.0 16.28999089631971 0.0 0.0 0.0 34.25627252547053" Properties=species:S:1:pos:R:3:initial_magmoms:R:1 pbc="T T T"
Si       1.27099467      -1.34356662       1.43177597       0.00000000
Si       1.36275624       1.34680833      -1.35274670       0.00000000
Si      -1.34838846      -1.36645407      -1.35421972       0.00000000
Si      -1.30569237       1.29060783       1.50779068       0.00000000
Si       0.78876180       2.06480637       2.63215068       0.00000000
Si      -0.57614472      -2.21900751       2.69357221       0.00000000
Si      -2.33645841      -0.58163445       2.64026942       0.00000000
Si       2.37477249       0.27310185       2.76033773       0.00000000
Si      -2.69848737       2.69922042       0.02264341       0.00000000
Si       0.00693954       2.70391194      -2.71313256       0.00000000
