10
Lattice="16.28999089631971 0.0 0.0 0.0 16.28999089631971 0.0 0.0 0.0 34.25627252547053" Properties=species:S:1:pos:R:3:initial_magmoms:R:1 pbc="T T T"
Si       1.95897024       1.14981336       0.38394452       0.00000000
Si      -1.44678006       1.27558845       1.31876446       0.00000000
Si      -1.00248660      -0.23765481      -2.09929407       0.00000000
Si       0.56452995      -1.94344587       1.19605842       0.00000000
Si      -0.03911229       1.67998770       3.27089350       0.00000000
Si       2.28183804       1.13246451       2.70203352       0.00000000
Si       0.28158894      -1.75586652      -3.43172679       0.00000000
Si      -1.87277985       3.40102620       0.18354521       0.00000000
Si      -0.91329885      -3.77041824       0.77967320       0.00000000
Si       1.92002085       3.50384868       0.24428162       0.00000000
