10
Lattice="16.28999089631971 0.0 0.0 0.0 16.28999089631971 0.0 0.0 0.0 34.25627252547053" Properties=species:S:1:pos:R:3:initial_magmoms:R:1 pbc="T T T"
Si       1.13788908      -1.61642412      -1.20787684       0.00000000
Si       0.32720094       1.77227055      -1.49439647       0.00000000
Si      -2.34549936       0.18454941       0.30775852       0.00000000
Si       0.97546149      -0.38864682       2.21230557       0.00000000
Si      -0.14325426       1.51050654       3.08022298       0.00000000
Si       3.33153306      -0.66573972      -0.76055819       0.00000000
Si       0.65774133      -3.44456937       0.13932034       0.00000000
Si      -2.31370128       0.83673585       2.55942458       0.00000000
Si       2.64815127       1.22474736      -2.06325645       0.00000000
Si       0.37284552      -2.71743264       2.31791772       0.00000000
