10
Lattice="16.28999089631971 0.0 0.0 0.0 16.28999089631971 0.0 0.0 0.0 34.25627252547053" Properties=species:S:1:pos:R:3:initial_magmoms:R:1 pbc="T T T"
Si      -1.60032960      -1.06701129       1.27484858       0.00000000
Si       1.11894381       1.62652392       1.32860698       0.00000000
Si       1.78017120      -1.83837537      -0.01900059       0.00000000
Si      -1.60321293       0.88277139      -1.97146744       0.00000000
Si       2.08013526      -0.97753032      -2.27720484       0.00000000
Si       0.27831465       0.15568353      -3.37943528       0.00000000
Si      -0.22066434      -2.43812430       2.61775687       0.00000000
Si       2.49787602       0.29691783       2.64560724       0.00000000
Si      -3.10754556      -2.02613391      -0.28441359       0.00000000
Si       2.92545594       2.44229454       0.05871871       0.00000000
