10
Lattice="16.28999089631971 0.0 0.0 0.0 16.28999089631971 0.0 0.0 0.0 34.25627252547053" Properties=species:S:1:pos:R:3:initial_magmoms:R:1 pbc="T T T"
Si      -0.32720094      -1.77227055       1.49439647       0.00000000
Si      -0.79221528       1.91233197       1.23189050       0.00000000
Si      -1.40766777      -0.40439925      -1.95212904       0.00000000
Si       2.32095033      -0.54752319      -0.56885998       0.00000000
Si       0.81068814      -3.38869467       0.28651962       0.00000000
Si       1.99808253      -0.53017434      -2.88694898       0.00000000
Si      -2.67270030      -1.58772114       1.80215499       0.00000000
Si       0.03911229      -1.67998770      -3.27089350       0.00000000
Si      -0.25207146       3.68025309      -0.24671381       0.00000000
Si       1.97952822       2.97960390      -0.94221930       0.00000000
