10
Lattice="16.28999089631971 0.0 0.0 0.0 16.28999089631971 0.0 0.0 0.0 34.25627252547053" Properties=species:S:1:pos:R:3:initial_magmoms:R:1 pbc="T T T"
Si      -2.17044702      -0.67377069      -0.52079840       0.00000000
Si       0.14784804       0.53757000       2.28372994       0.00000000
Si       1.11871575      -1.89915336      -0.86791741       0.00000000
Si       0.58683096       2.03308974      -1.13145106       0.00000000
Si       0.14325426      -1.51050654      -3.08022298       0.00000000
Si       0.07892505       2.91369456       2.23183166       0.00000000
Si      -2.20224510      -1.32595713      -2.77246445       0.00000000
Si      -3.76551495       0.78079599       0.39703042       0.00000000
Si      -1.77686433      -0.21339900       3.44974560       0.00000000
Si       3.39148026      -1.90526211      -0.08252341       0.00000000
