10
Lattice="16.28999089631971 0.0 0.0 0.0 16.28999089631971 0.0 0.0 0.0 34.25627252547053" Properties=species:S:1:pos:R:3:initial_magmoms:R:1 pbc="T T T"
Si       1.32506118      -1.29239973       1.40409688       0.00000000
Si       1.13666733       1.55952154      -1.31878625       0.00000000
Si      -1.36203948       1.39406562       1.40064042       0.00000000
Si      -1.28559051      -1.52948439      -1.35770842       0.00000000
Si      -0.66678228       2.41074148      -2.66335272       0.00000000
Si       2.65644288      -2.68514586       0.09502695       0.00000000
Si      -0.03484431      -2.65569354       2.74621043       0.00000000
Si      -2.73546567       2.66830919       0.03180697       0.00000000
Si       2.68025886       0.06243957       2.75220528       0.00000000
Si      -2.75142987      -2.70269019       0.06550831       0.00000000
