10
Lattice="16.28999089631971 0.0 0.0 0.0 16.28999089631971 0.0 0.0 0.0 34.25627252547053" Properties=species:S:1:pos:R:3:initial_magmoms:R:1 pbc="T T T"
Si       1.35707103       1.35572556      -1.35692597       0.00000000
Si      -1.35816246      -1.35625653      -1.35767961       0.00000000
Si      -1.35728280       1.35747879       1.35743981       0.00000000
Si       1.35782037      -1.35767376       1.35713151       0.00000000
Si       2.71412577       0.00309510      -2.71107718       0.00000000
Si       0.00280188       2.71353348      -2.71474260       0.00000000
Si      -2.71593396      -0.00083079      -2.71241317       0.00000000
Si      -0.00171045       2.71540846       2.71436578       0.00000000
Si      -2.71467963      -2.71510317      -0.00017128       0.00000000
Si      -2.71474479       2.71507615      -0.00030831       0.00000000
