10
Lattice="16.28999089631971 0.0 0.0 0.0 16.28999089631971 0.0 0.0 0.0 34.25627252547053" Properties=species:S:1:pos:R:3:initial_magmoms:R:1 pbc="T T T"
Si      -1.35866745      -1.35565380      -1.35747407       0.00000000
Si       1.35931905      -1.35671265       1.35644638       0.00000000
Si       1.35677781       1.35879777      -1.35730279       0.00000000
Si      -1.35868374       1.35894438       1.36250974       0.00000000
Si       2.69736336      -0.00630423       2.71354363       0.00000000
Si       2.71360449      -2.71389771      -0.00030831       0.00000000
Si      -0.00123804      -2.71360449      -2.71446855       0.00000000
Si      -2.71568961      -2.71290402       0.00003426       0.00000000
Si       2.71432125       0.00146610      -2.71443430       0.00000000
Si       2.71440270       2.71554300       0.00020554       0.00000000
