10
Lattice="16.28999089631971 0.0 0.0 0.0 16.28999089631971 0.0 0.0 0.0 34.25627252547053" Properties=species:S:1:pos:R:3:initial_magmoms:R:1 pbc="T T T"
Si      -1.26664687       1.35614250      -1.42571260       0.00000000
Si       1.33641531       1.36247931       1.37735985       0.00000000
Si      -1.37507148      -1.35518139       1.37924394       0.00000000
Si       1.65573189      -1.17006183      -1.40794386       0.00000000
Si      -2.31209346      -0.20390193      -2.80963051       0.00000000
Si       0.63322488       2.05540704      -2.98002131       0.00000000
Si       2.69718417       2.72753244       0.01026318       0.00000000
Si       2.69444745       0.00689067       2.73579309       0.00000000
Si       2.70961344      -2.72253141       0.00487467       0.00000000
Si      -2.73044499      -2.70762606       0.00778988       0.00000000
