10
Lattice="16.28999089631971 0.0 0.0 0.0 16.28999089631971 0.0 0.0 0.0 34.25627252547053" Properties=species:S:1:pos:R:3:initial_magmoms:R:1 pbc="T T T"
Si       1.35716877      -1.35668007      -1.36329764       0.00000000
Si      -1.35998694       1.35965692      -1.36357169       0.00000000
Si      -1.37254653      -1.33838640       1.38124794       0.00000000
Si       1.35791811       1.36622342       1.38539295       0.00000000
Si      -2.71591767      -2.71327869      -0.00099343       0.00000000
Si       2.71573848       2.71641356      -0.00284327       0.00000000
Si      -2.71609686       2.71680452      -0.00839279       0.00000000
Si      -0.00045612      -2.71342530      -2.72080597       0.00000000
Si       2.71476108       0.00107203      -2.72097725       0.00000000
Si      -2.71555929       0.00172725      -2.72049766       0.00000000
