10
Lattice="16.28999089631971 0.0 0.0 0.0 16.28999089631971 0.0 0.0 0.0 34.25627252547053" Properties=species:S:1:pos:R:3:initial_magmoms:R:1 pbc="T T T"
Si       0.31203495       2.26924587       0.57454652       0.00000000
Si      -0.54014382      -1.76792112       1.47860432       0.00000000
Si       2.23159968      -0.70064919      -0.69550549       0.00000000
Si      -1.99635579      -0.06305859      -1.41159901       0.00000000
Si       2.67463881       2.13214923       1.24018053       0.00000000
Si       0.26220384       3.30496963      -1.61381390       0.00000000
Si       0.25207146      -3.68025309       0.24671381       0.00000000
Si      -3.73835952      -0.03808602       0.22533789       0.00000000
Si      -1.58159610      -1.95921459      -2.84063447       0.00000000
Si      -2.96121249      -1.78670349       1.59363694       0.00000000
