10
Lattice="16.28999089631971 0.0 0.0 0.0 16.28999089631971 0.0 0.0 0.0 34.25627252547053" Properties=species:S:1:pos:R:3:initial_magmoms:R:1 pbc="T T T"
Si       2.26101942       0.47397384       0.41446687       0.00000000
Si      -1.56012588       0.96065388       1.51409384       0.00000000
Si      -0.19178217      -2.32855776       0.58506321       0.00000000
Si      -0.17275545       1.23813774      -2.08713308       0.00000000
Si      -0.30770181       3.22420381      -0.71931361       0.00000000
Si       3.12324912      -1.53748278      -0.42488079       0.00000000
Si      -3.16016226      -0.88259220       1.59898093       0.00000000
Si      -2.47894704      -2.80293885       0.36256859       0.00000000
Si       1.29132459      -3.47509683      -0.76775201       0.00000000
Si       2.64350862       0.35947143       2.75523354       0.00000000
