10
Lattice="16.28999089631971 0.0 0.0 0.0 16.28999089631971 0.0 0.0 0.0 34.25627252547053" Properties=species:S:1:pos:R:3:initial_magmoms:R:1 pbc="T T T"
Si       1.79572815      -1.08071118       0.93259328       0.00000000
Si      -1.83853827      -0.46620351       1.36511322       0.00000000
Si       0.58600017       2.00994165      -1.07184511       0.00000000
Si      -1.58557086      -1.45875321      -1.04923596       0.00000000
Si       0.60509205      -3.04595307       1.55413944       0.00000000
Si      -0.15884379       1.42423470      -3.26099343       0.00000000
Si      -1.75888017      -0.41901138      -3.17610634       0.00000000
Si       3.42531459      -1.13142195      -0.79385530       0.00000000
Si      -2.65996152       1.71361026       1.93311680       0.00000000
Si       2.38114188       0.16770555       2.95237850       0.00000000
