10
Lattice="16.28999089631971 0.0 0.0 0.0 16.28999089631971 0.0 0.0 0.0 34.25627252547053" Properties=species:S:1:pos:R:3:initial_magmoms:R:1 pbc="T T T"
Si      -0.17330931       1.03974183      -2.12687038       0.00000000
Si       0.06892299      -2.37612456       0.05189828       0.00000000
Si       1.58557086       1.45875321       1.04923596       0.00000000
Si      -2.28099096       0.29328516       1.10284705       0.00000000
Si      -0.25296741       0.99254970       2.41434918       0.00000000
Si       0.50790591      -0.88060482      -3.36328272       0.00000000
Si      -2.90945916       2.03691789      -0.29604287       0.00000000
Si      -0.07892505      -2.91369456      -2.23183166       0.00000000
Si       2.19066291      -1.58719986       2.60337540       0.00000000
Si      -1.85578938      -3.12709356       1.21791394       0.00000000
