10
Lattice="16.28999089631971 0.0 0.0 0.0 16.28999089631971 0.0 0.0 0.0 34.25627252547053" Properties=species:S:1:pos:R:3:initial_magmoms:R:1 pbc="T T T"
Si       0.67473180       0.43227144       2.25327610       0.00000000
Si       0.20799072      -2.47260697       0.41611117       0.00000000
Si       2.14115827      -0.01444923      -1.33308359       0.00000000
Si       0.93786745      -1.33843527      -2.91072285       0.00000000
Si      -0.85317246       3.04839657      -1.52502159       0.00000000
Si      -1.04967873       1.90089639       2.79733452       0.00000000
Si      -1.95695028       1.43172810      -2.85358335       0.00000000
Si       3.64284215      -0.53245494       0.69804046       0.00000000
Si       2.44028177      -2.57274649       1.21250144       0.00000000
Si       0.16294887      -3.32210115      -1.78341680       0.00000000
