10
Lattice="16.28999089631971 0.0 0.0 0.0 16.28999089631971 0.0 0.0 0.0 34.25627252547053" Properties=species:S:1:pos:R:3:initial_magmoms:R:1 pbc="T T T"
Si       2.04955797       0.13271463       1.12603856       0.00000000
Si      -0.75531843       2.05724781      -0.90289308       0.00000000
Si      -1.53595152      -0.00692325       1.81482982       0.00000000
Si       0.40913964      -1.08409950      -2.11320212       0.00000000
Si      -3.32480529      -0.57184416       0.44221447       0.00000000
Si       1.10449883       3.32467497      -0.33793832       0.00000000
Si       3.00070664       1.93635972      -0.01678558       0.00000000
Si      -1.42415325      -2.20669227       2.59556496       0.00000000
Si      -1.54724049      -2.27996469      -2.46128030       0.00000000
Si      -3.17259153      -0.67777803      -1.93212336       0.00000000
