10
Lattice="16.28999089631971 0.0 0.0 0.0 16.28999089631971 0.0 0.0 0.0 34.25627252547053" Properties=species:S:1:pos:R:3:initial_magmoms:R:1 pbc="T T T"
Si      -1.56121731       1.36881775       1.07777145       0.00000000
Si      -0.95592978      -1.92510889       1.02162539       0.00000000
Si      -1.06241751      -0.22830533      -2.15126086       0.00000000
Si       2.43304249      -0.00566403       0.36780980       0.00000000
Si       1.02147229      -1.12061095      -3.12136478       0.00000000
Si      -3.52465101       0.82512108      -0.11215510       0.00000000
Si       2.56783247       0.36693225       2.72248452       0.00000000
Si      -3.38970465      -1.16094499      -1.47997457       0.00000000
Si      -0.13706406       3.57551002      -1.51779352       0.00000000
Si      -1.22127759       1.61313517       3.33652855       0.00000000
