10
Lattice="16.28999089631971 0.0 0.0 0.0 16.28999089631971 0.0 0.0 0.0 34.25627252547053" Properties=species:S:1:pos:R:3:initial_magmoms:R:1 pbc="T T T"
Si       1.06241751       0.22830533       2.15126086       0.00000000
Si      -0.62188704       1.52385066      -1.82781295       0.00000000
Si       2.08388980      -0.89230562      -0.97010392       0.00000000
Si      -2.32728714      -0.93263966       0.67128629       0.00000000
Si      -1.48230855      -1.83447035      -1.54804182       0.00000000
Si       0.73205631      -2.00662307      -2.51845405       0.00000000
Si      -2.46223350       1.05342641       2.03910576       0.00000000
Si       1.33449309       2.71971585      -1.47973477       0.00000000
Si       0.10648773      -1.69680356       3.17288625       0.00000000
Si      -0.49879980       1.59712308       3.22903231       0.00000000
