10
Lattice="16.28999089631971 0.0 0.0 0.0 16.28999089631971 0.0 0.0 0.0 34.25627252547053" Properties=species:S:1:pos:R:3:initial_magmoms:R:1 pbc="T T T"
Si       0.33993972       0.24431742       2.25875710       0.00000000
Si      -0.11179827       2.19976902      -0.78073514       0.00000000
Si       1.56121731      -1.36881775      -1.07777145       0.00000000
Si      -1.96343370      -0.54369667      -1.18992655       0.00000000
Si      -1.90065204       1.63484811      -2.15335049       0.00000000
Si       0.60528753      -3.29392664      -0.05614606       0.00000000
Si      -2.84628654       1.62844614       0.96722640       0.00000000
Si       2.65115419       0.78182226       2.15030168       0.00000000
Si       0.49879980      -1.59712308      -3.22903231       0.00000000
Si       1.42415325       2.20669227      -2.59556496       0.00000000
