10
Lattice="16.28999089631971 0.0 0.0 0.0 16.28999089631971 0.0 0.0 0.0 34.25627252547053" Properties=species:S:1:pos:R:3:initial_magmoms:R:1 pbc="T T T"
Si       1.33881066       1.35039213       1.35785089       0.00000000
Si      -1.35835463       1.35329175      -1.35956370       0.00000000
Si       1.35669871      -1.36212093      -1.35970073       0.00000000
Si      -1.36335566      -1.36427121       1.38234414       0.00000000
Si       2.58624348      -0.02604771       2.79545043       0.00000000
Si       2.71701960       2.71016730       0.00383670       0.00000000
Si      -0.00074112       2.71155195      -2.71690075       0.00000000
Si      -2.71778771       2.71178001       0.00047959       0.00000000
Si       2.71407111      -0.00299736      -2.71714054       0.00000000
Si      -2.71423649      -2.71857294       0.00106195       0.00000000
