10
Lattice="16.28999089631971 0.0 0.0 0.0 16.28999089631971 0.0 0.0 0.0 34.25627252547053" Properties=species:S:1:pos:R:3:initial_magmoms:R:1 pbc="T T T"
Si       1.35776094      -1.35581670       1.36004329       0.00000000
Si      -1.35897696       1.36006839       1.36127652       0.00000000
Si       1.36008468       1.35366642      -1.37689396       0.00000000
Si      -1.35534429      -1.35700587      -1.38680773       0.00000000
Si      -0.12303837       2.67732666      -2.70541119       0.00000000
Si      -2.71639008      -2.71305063       0.00075364       0.00000000
Si      -2.71340901       2.71637379       0.00390522       0.00000000
Si      -0.00017919      -2.71415835       2.71813398       0.00000000
Si       2.71545570       0.00084708       2.71833951       0.00000000
Si       2.71714498       2.71726974       0.00558378       0.00000000
