10
Lattice="16.28999089631971 0.0 0.0 0.0 16.28999089631971 0.0 0.0 0.0 34.25627252547053" Properties=species:S:1:pos:R:3:initial_magmoms:R:1 pbc="T T T"
Si      -1.24743281       1.37643984      -1.43759954       0.00000000
Si       0.99738783       1.78836507       1.27882162       0.00000000
Si      -1.29768421      -1.39872456       1.51005159       0.00000000
Si       1.48618557      -1.34921925      -1.39865013       0.00000000
Si      -2.50097503      -2.72271060      -0.06758766       0.00000000
Si      -2.58892288       2.70135441      -0.00154153       0.00000000
Si      -2.58624348       0.02604771      -2.79545043       0.00000000
Si       0.12927744      -2.69228088      -2.79904734       0.00000000
Si      -0.82850940       3.55470606       1.34688888       0.00000000
Si       0.13077612       2.73621501      -2.79161372       0.00000000
