10
Lattice="16.28999089631971 0.0 0.0 0.0 16.28999089631971 0.0 0.0 0.0 34.25627252547053" Properties=species:S:1:pos:R:3:initial_magmoms:R:1 pbc="T T T"
Si       1.77288957       0.56938437       1.39066842       0.00000000
Si      -0.23368005      -2.35703268      -0.05991425       0.00000000
Si      -2.11921497      -0.09229914       1.21681774       0.00000000
Si       0.53457264       1.05562458      -2.20761246       0.00000000
Si      -2.08026558      -2.44633446       1.35648064       0.00000000
Si      -0.63242667      -2.70557352      -2.46730941       0.00000000
Si       3.73457602      -0.31084578       0.24260306       0.00000000
Si       1.40356269       2.82225879       2.04715599       0.00000000
Si      -0.13931208      -0.74393172      -3.70303662       0.00000000
Si       1.61367111      -0.41663304       3.52822676       0.00000000
