10
Lattice="16.28999089631971 0.0 0.0 0.0 16.28999089631971 0.0 0.0 0.0 34.25627252547053" Properties=species:S:1:pos:R:3:initial_magmoms:R:1 pbc="T T T"
Si       0.89355537      -2.14796682      -0.25836095       0.00000000
Si      -2.23275627      -0.10176363       0.75415226       0.00000000
Si       0.15921846       0.98601741      -2.13755834       0.00000000
Si       1.47171258       1.00142775       1.60405086       0.00000000
Si      -1.80537183      -0.40035933       3.02805065       0.00000000
Si      -0.21010842       3.23889183      -1.48107077       0.00000000
Si       0.02655270       1.53725472       3.37092187       0.00000000
Si       3.23834516      -1.84482621      -0.51490632       0.00000000
Si      -0.11267793      -3.08923560      -2.26002459       0.00000000
Si      -1.61367111       0.41663304      -3.52822676       0.00000000
