10
Lattice="16.28999089631971 0.0 0.0 0.0 16.28999089631971 0.0 0.0 0.0 34.25627252547053" Properties=species:S:1:pos:R:3:initial_magmoms:R:1 pbc="T T T"
Si      -1.77288957      -0.56938437      -1.39066842       0.00000000
Si      -0.15921846      -0.98601741       2.13755834       0.00000000
Si      -0.36932688       2.25287442       0.65648757       0.00000000
Si       1.96168645      -0.88023015      -1.14806536       0.00000000
Si       1.70823849       1.15367409      -2.55377229       0.00000000
Si       0.73433691      -3.13398423       1.87919739       0.00000000
Si      -2.00656962      -2.92641705      -1.45058267       0.00000000
Si      -1.23831693       0.48624021      -3.59828088       0.00000000
Si      -2.58369174       2.42502714       1.62689980       0.00000000
Si      -2.39197473      -1.08778104       2.89171060       0.00000000
