10
Lattice="16.28999089631971 0.0 0.0 0.0 16.28999089631971 0.0 0.0 0.0 34.25627252547053" Properties=species:S:1:pos:R:3:initial_magmoms:R:1 pbc="T T T"
Si       1.55259243      -0.77054958       1.58031125       0.00000000
Si       0.79464249       1.86613353      -1.25607545       0.00000000
Si      -0.48721761      -1.74876408      -1.57644029       0.00000000
Si      -2.12594274      -0.46639899       1.03053202       0.00000000
Si       0.58197654       0.94524354       3.20066810       0.00000000
Si       1.06927415      -3.25604520       1.27464236       0.00000000
Si      -0.81508644      -3.57140331      -0.05977723       0.00000000
Si      -1.10754081       2.58134598      -2.41969316       0.00000000
Si      -2.73712725       2.63205675      -0.69324457       0.00000000
Si       1.47291804       3.56324202       0.29196637       0.00000000
