10
Lattice="16.28999089631971 0.0 0.0 0.0 16.28999089631971 0.0 0.0 0.0 34.25627252547053" Properties=species:S:1:pos:R:3:initial_magmoms:R:1 pbc="T T T"
Si       1.47384373      -1.23831693       1.28789269       0.00000000
Si      -1.27088064       1.46764311       1.27724926       0.00000000
Si      -0.82621251      -1.81400553      -1.28984941       0.00000000
Si       0.77582754       1.83475803      -1.34138971       0.00000000
Si       0.38116971       0.29216115      -3.27111757       0.00000000
Si       0.10534743      -2.60016093       2.63598396       0.00000000
Si      -2.60890866       0.11780928       2.63721719       0.00000000
Si      -2.63272464      -2.62977615      -0.01996114       0.00000000
Si       2.65757571      -2.74996377      -0.05508412       0.00000000
Si      -1.69730397      -0.88695792      -3.32976434       0.00000000
