10
Lattice="16.28999089631971 0.0 0.0 0.0 16.28999089631971 0.0 0.0 0.0 34.25627252547053" Properties=species:S:1:pos:R:3:initial_magmoms:R:1 pbc="T T T"
Si      -1.35762489      -1.35674523      -1.35750833       0.00000000
Si       1.35759231       1.35775210      -1.35767961       0.00000000
Si      -1.35716877       1.35668007       1.36329764       0.00000000
Si       1.36319607      -1.35940050       1.35860453       0.00000000
Si       2.71415835      -2.71337643      -0.00006851       0.00000000
Si      -0.00008145      -2.71407690      -2.71463983       0.00000000
Si       2.71438641       0.00083079      -2.71460558       0.00000000
Si      -2.71440270      -2.71554300      -0.00020554       0.00000000
Si      -2.71544526       0.00092853      -2.71463983       0.00000000
Si      -0.00017919       2.71559417      -2.71463983       0.00000000
