10
Lattice="16.28999089631971 0.0 0.0 0.0 16.28999089631971 0.0 0.0 0.0 34.25627252547053" Properties=species:S:1:pos:R:3:initial_magmoms:R:1 pbc="T T T"
Si      -1.35161388       1.26447867       1.42095098       0.00000000
Si      -1.36386396      -1.34161182      -1.36648347       0.00000000
Si       1.34548884       1.37277873      -1.36346892       0.00000000
Si       1.33220140      -1.48025601       1.55479031       0.00000000
Si       0.65609604       2.07703106       2.48947323       0.00000000
Si       2.44231965       0.45416520       2.51509693       0.00000000
Si      -2.39655222      -0.38713185       2.71974402       0.00000000
Si      -0.77903667      -2.28955950       2.87937834       0.00000000
Si       2.70705332      -2.71036278       0.02483581       0.00000000
Si      -0.01290168      -2.69558775      -2.72515651       0.00000000
