10
Lattice="16.28999089631971 0.0 0.0 0.0 16.28999089631971 0.0 0.0 0.0 34.25627252547053" Properties=species:S:1:pos:R:3:initial_magmoms:R:1 pbc="T T T"
Si      -1.88436059      -0.31535811      -1.33441959       0.00000000
Si       1.47986554      -0.36984816      -1.87724478       0.00000000
Si       0.36400380      -1.57551993       1.82716209       0.00000000
Si       0.48331827       2.48549562       0.30566889       0.00000000
Si       1.40945038      -0.01547550       3.21108000       0.00000000
Si      -1.55649176       1.50728112      -2.85108264       0.00000000
Si       3.42388970       0.73674783      -0.98778017       0.00000000
Si      -1.06927415       3.25604520      -1.27464236       0.00000000
Si       3.30932213       0.68378904       1.65677129       0.00000000
Si      -1.77666740      -2.46554037      -2.27095234       0.00000000
