10
Lattice="16.28999089631971 0.0 0.0 0.0 16.28999089631971 0.0 0.0 0.0 34.25627252547053" Properties=species:S:1:pos:R:3:initial_magmoms:R:1 pbc="T T T"
Si       0.68059620       1.87747137       1.47935937       0.00000000
Si       1.95892137      -1.62940725       0.02747355       0.00000000
Si      -1.89987175      -0.69926454       1.55430871       0.00000000
Si       0.11456757       0.05295879      -2.64455146       0.00000000
Si      -0.49881609       2.34360972      -2.04784112       0.00000000
Si      -2.82600386       1.80170658      -1.35110240       0.00000000
Si      -0.63322488      -2.05540704       2.98002131       0.00000000
Si       2.06395929       0.67212540       2.99028449       0.00000000
Si      -2.94531834      -2.25930897       0.17039079       0.00000000
Si       1.02250701      -3.22546887       1.57207744       0.00000000
