10
Lattice="16.28999089631971 0.0 0.0 0.0 16.28999089631971 0.0 0.0 0.0 34.25627252547053" Properties=species:S:1:pos:R:3:initial_magmoms:R:1 pbc="T T T"
Si       1.35692442      -1.35731229      -1.35781663       0.00000000
Si      -1.35910565      -1.35690504       1.35723428       0.00000000
Si       1.35560493       1.35981640       1.35791940       0.00000000
Si      -1.35838400       1.35816134      -1.35809068       0.00000000
Si      -0.00151497      -2.71158144       2.71467409       0.00000000
Si       0.00040725       2.71516232       2.71292702       0.00000000
Si       2.71397916      -2.71448106      -0.00047959       0.00000000
Si       2.71443528       2.71493426      -0.00027405       0.00000000
Si      -0.00138465       2.71589537      -2.71395471       0.00000000
Si      -0.00110772      -2.71527927      -2.71491388       0.00000000
