10
Lattice="16.28999089631971 0.0 0.0 0.0 16.28999089631971 0.0 0.0 0.0 34.25627252547053" Properties=species:S:1:pos:R:3:initial_magmoms:R:1 pbc="T T T"
Si      -1.34715205      -1.32646212       1.37694877       0.00000000
Si      -1.51452854       1.23813774      -1.31333141       0.00000000
Si       1.36726857       1.38857589       1.37071413       0.00000000
Si       1.34149779      -1.47411468      -1.50377927       0.00000000
Si       0.40136931       2.07539487      -2.42203903       0.00000000
Si       2.29376232       0.45339957      -2.55813894       0.00000000
Si      -2.70421235      -2.69006544      -0.00552897       0.00000000
Si       2.72486088      -2.67946065       0.00714586       0.00000000
Si       0.00693954      -2.68477119       2.73284705       0.00000000
Si      -2.70825654       0.02917539       2.73229895       0.00000000
