10
Lattice="16.28999089631971 0.0 0.0 0.0 16.28999089631971 0.0 0.0 0.0 34.25627252547053" Properties=species:S:1:pos:R:3:initial_magmoms:R:1 pbc="T T T"
Si       1.35759068      -1.35467640       1.35743981       0.00000000
Si      -1.35626535       1.35371943       1.36151631       0.00000000
Si      -1.35696492      -1.35801585      -1.35761110       0.00000000
Si       1.35910565       1.35690504      -1.35723428       0.00000000
Si       0.02153864       2.71991591       2.70312972       0.00000000
Si      -2.70175419      -0.01905930       2.72498523       0.00000000
Si      -2.71362960       2.71420626      -0.00027405       0.00000000
Si      -2.71442781      -0.00043983      -2.71470835       0.00000000
Si      -2.71465587      -2.71464705      -0.00017128       0.00000000
Si       0.00057504      -2.71549413      -2.71481111       0.00000000
