10
Lattice="16.28999089631971 0.0 0.0 0.0 16.28999089631971 0.0 0.0 0.0 34.25627252547053" Properties=species:S:1:pos:R:3:initial_magmoms:R:1 pbc="T T T"
Si       1.70771165       0.98812666      -1.19513350       0.00000000
Si      -1.78622361       1.62286586      -0.02562371       0.00000000
Si      -1.11011825      -1.93442121      -0.96030662       0.00000000
Si      -0.27480090      -2.07629082       1.40878999       0.00000000
Si       1.78927568       0.65502090       1.87830673       0.00000000
Si       0.28097318       2.28481001      -2.53695245       0.00000000
Si      -2.44231965      -0.45416520      -2.51509693       0.00000000
Si      -1.74118176       2.47236003       2.17390427       0.00000000
Si       0.49110929       2.37222052       2.97029454       0.00000000
Si      -1.01130503       3.60653174      -1.15292975       0.00000000
