10
Lattice="16.28999089631971 0.0 0.0 0.0 16.28999089631971 0.0 0.0 0.0 34.25627252547053" Properties=species:S:1:pos:R:3:initial_magmoms:R:1 pbc="T T T"
Si      -1.29816639       1.71719962       1.09198781       0.00000000
Si       1.97201853       0.96357535      -1.35031451       0.00000000
Si      -1.78927568      -0.65502090      -1.87830673       0.00000000
Si       1.26273564      -0.85740786       2.31808900       0.00000000
Si      -0.08156403       0.33310576      -3.07344023       0.00000000
Si      -2.06407658      -2.73131172      -0.46951673       0.00000000
Si      -0.09560601       3.75749117       0.57752682       0.00000000
Si       1.63634679       1.31811905       3.23509567       0.00000000
Si      -3.53045744       1.81733913       0.29559754       0.00000000
Si       3.59121195      -0.73969632      -1.60017990       0.00000000
