10
Lattice="16.28999089631971 0.0 0.0 0.0 16.28999089631971 0.0 0.0 0.0 34.71893929493243" Properties=species:S:1:pos:R:3:initial_magmoms:R:1 pbc="T T T"
Si      -2.06676836      -0.03412755      -1.15006551       0.00000000
Si       2.08759608       0.76321908      -0.90085282       0.00000000
Si      -0.25560802       1.73050692       1.72820561       0.00000000
Si       0.13476717      -2.27672298       0.97463061       0.00000000
Si       3.41425368      -0.36645984       0.97525555       0.00000000
Si       1.98249300      -1.74096117       2.45601914       0.00000000
Si      -3.08085344      -2.02137723      -0.18668384       0.00000000
Si      -2.80828916       2.22040423      -0.97018658       0.00000000
Si       0.16250904      -3.62928168      -0.98424776       0.00000000
Si      -1.49915404       3.47777558       0.62570507       0.00000000
