10
Lattice="16.28999089631971 0.0 0.0 0.0 16.28999089631971 0.0 0.0 0.0 34.71893929493243" Properties=species:S:1:pos:R:3:initial_magmoms:R:1 pbc="T T T"
Si      -1.50574986       1.19562670      -1.30152002       0.00000000
Si      -1.34708526      -1.32935492       1.35403245       0.00000000
Si       1.16264988      -1.44621938      -1.46575805       0.00000000
Si       1.36632375       1.38751965       1.34896348       0.00000000
Si       0.33899490       2.03520516      -2.58422549       0.00000000
Si       2.07813159       0.36089452      -2.69917827       0.00000000
Si       0.00702099      -2.68857623       2.70699555       0.00000000
Si      -2.70309744      -2.69349581      -0.01246758       0.00000000
Si      -2.70671382       0.02475343       2.70720386       0.00000000
Si       2.72425815      -2.69486417      -0.04896762       0.00000000
