10
Lattice="16.28999089631971 0.0 0.0 0.0 16.28999089631971 0.0 0.0 0.0 34.71893929493243" Properties=species:S:1:pos:R:3:initial_magmoms:R:1 pbc="T T T"
Si       1.35716877       1.35773240      -1.35685162       0.00000000
Si      -1.35744570      -1.35738540      -1.35716410       0.00000000
Si      -1.35694071       1.35693419       1.35851813       0.00000000
Si       1.35643572      -1.35931646       1.35969858       0.00000000
Si      -0.00314397      -2.70441434       2.72325096       0.00000000
Si      -0.00040725      -2.71420463      -2.71425875       0.00000000
Si       2.71564074      -2.71337384      -0.00034719       0.00000000
Si       2.71495656       0.00019874      -2.71422403       0.00000000
Si      -2.71527421       0.00051639      -2.71436291       0.00000000
Si       2.71552671       2.71428215       0.00010416       0.00000000
