10
Lattice="16.28999089631971 0.0 0.0 0.0 16.28999089631971 0.0 0.0 0.0 34.71893929493243" Properties=species:S:1:pos:R:3:initial_magmoms:R:1 pbc="T T T"
Si      -1.79789472      -0.41348744      -1.49020715       0.00000000
Si       0.56749473       2.26991376      -0.49061361       0.00000000
Si      -1.62849501      -0.02845863       1.75570302       0.00000000
Si       1.98614196      -1.58240604      -0.06103593       0.00000000
Si      -0.76139460       0.78433092      -3.30340476       0.00000000
Si      -0.75305412       1.82980683       2.98211552       0.00000000
Si       1.11876462       2.09551302      -2.72470916       0.00000000
Si      -1.80639810      -2.78769860      -1.43708714       0.00000000
Si      -1.68384843      -2.44329542       2.20715364       0.00000000
Si      -1.42206813       3.54825522      -0.21494507       0.00000000
