10
Lattice="16.28999089631971 0.0 0.0 0.0 16.28999089631971 0.0 0.0 0.0 34.71893929493243" Properties=species:S:1:pos:R:3:initial_magmoms:R:1 pbc="T T T"
Si       1.35625653       1.35721764      -1.35886532       0.00000000
Si      -1.35759231       1.35744570       1.35765016       0.00000000
Si       1.35752715      -1.35772263       1.35799735       0.00000000
Si      -1.35791811      -1.35863487      -1.35744185       0.00000000
Si      -0.00322542      -2.71340901      -2.71193258       0.00000000
Si      -0.00104256       2.71388142       2.71457122       0.00000000
Si      -2.71491584      -2.71493864       0.00048607       0.00000000
Si       2.71494027       2.71520091       0.00006944       0.00000000
Si       0.00035838      -2.71545503       2.71484898       0.00000000
Si      -2.71441899      -0.00001629       2.71589054       0.00000000
