10
Lattice="16.28999089631971 0.0 0.0 0.0 16.28999089631971 0.0 0.0 0.0 34.71893929493243" Properties=species:S:1:pos:R:3:initial_magmoms:R:1 pbc="T T T"
Si       1.35658233       1.35452979      -1.35626140       0.00000000
Si      -1.35723393       1.35684297       1.35837926       0.00000000
Si       1.35764118      -1.35754344       1.35785847       0.00000000
Si      -1.35868374      -1.35798327      -1.35893476       0.00000000
Si      -2.71490769       2.71459818      -0.00006944       0.00000000
Si       0.00319284      -2.71480995      -2.71516145       0.00000000
Si      -2.71494027      -2.71520091      -0.00006944       0.00000000
Si       2.71555929       2.71469592       0.00027775       0.00000000
Si       0.00043983       2.71494027       2.71550864       0.00000000
Si      -2.71598283      -0.00131949       2.71450179       0.00000000
