10
Lattice="16.28999089631971 0.0 0.0 0.0 16.28999089631971 0.0 0.0 0.0 34.71893929493243" Properties=species:S:1:pos:R:3:initial_magmoms:R:1 pbc="T T T"
Si       0.52310448       1.69008750       1.57811555       0.00000000
Si      -2.24411040       0.49550922      -0.60275584       0.00000000
Si       0.60502689      -2.09292291       1.02382737       0.00000000
Si       1.39098681       0.10479357      -1.96752339       0.00000000
Si       3.36204423      -0.98411148      -0.91935803       0.00000000
Si       0.41757786       0.53659260       3.58389923       0.00000000
Si       2.86871787       2.05736184       1.40799265       0.00000000
Si      -2.64712500       2.77404039      -0.04044759       0.00000000
Si      -1.04027940      -3.67318323       0.39287974       0.00000000
Si      -3.69436023      -0.68069394       0.87960482       0.00000000
