10
Lattice="16.28999089631971 0.0 0.0 0.0 16.28999089631971 0.0 0.0 0.0 34.71893929493243" Properties=species:S:1:pos:R:3:initial_magmoms:R:1 pbc="T T T"
Si      -0.01858689      -1.86383664      -1.50048396       0.00000000
Si      -2.18654154      -0.03448593       1.00813440       0.00000000
Si       1.44541170      -0.49428747       1.86548437       0.00000000
Si       0.74464848       2.01262950      -1.11152746       0.00000000
Si       0.39294738      -3.46149468       0.18855866       0.00000000
Si       2.82463713       1.39501044       1.93634576       0.00000000
Si      -3.50379981       1.32581052      -0.41437077       0.00000000
Si       2.18908278      -2.72903112       1.45718942       0.00000000
Si       2.86008417       2.50765002      -0.10783709       0.00000000
Si      -1.94131188       0.62951076       3.27097726       0.00000000
