10
Lattice="16.28999089631971 0.0 0.0 0.0 16.28999089631971 0.0 0.0 0.0 34.71893929493243" Properties=species:S:1:pos:R:3:initial_magmoms:R:1 pbc="T T T"
Si      -1.79613540      -0.73246356      -1.26863075       0.00000000
Si      -0.22125078      -1.18889307       1.98220951       0.00000000
Si       1.62230481      -0.72006687      -1.50940673       0.00000000
Si      -0.74367108       2.23474365       0.40829495       0.00000000
Si      -2.40805296      -0.23307732       2.29971439       0.00000000
Si       2.70629028       1.30155471      -1.91881269       0.00000000
Si       1.73845251      -0.50986071       3.12251899       0.00000000
Si      -3.51396477      -0.94741011       0.30830435       0.00000000
Si       3.15775134      -1.99304892      -0.20244625       0.00000000
Si      -2.18908278       2.72903112      -1.45718942       0.00000000
