10
Lattice="16.28999089631971 0.0 0.0 0.0 16.28999089631971 0.0 0.0 0.0 34.71893929493243" Properties=species:S:1:pos:R:3:initial_magmoms:R:1 pbc="T T T"
Si      -1.29171555       1.38036573      -1.41413791       0.00000000
Si      -1.69665237      -0.86920182       1.42993503       0.00000000
Si       1.43550738      -1.35366642      -1.37820378       0.00000000
Si       1.17996615       1.63507617       1.42580348       0.00000000
Si      -2.47549356       2.83521978       0.07929810       0.00000000
Si      -2.72212416      -2.66334984       0.09440085       0.00000000
Si       2.76048711       2.66662413      -0.01524162       0.00000000
Si      -2.64710871       0.01210347      -2.77980815       0.00000000
Si       0.06765237      -2.70275535      -2.77460030       0.00000000
Si       0.06786414       2.72546361      -2.77769029       0.00000000
