10
Lattice="16.28999089631971 0.0 0.0 0.0 16.28999089631971 0.0 0.0 0.0 34.71893929493243" Properties=species:S:1:pos:R:3:initial_magmoms:R:1 pbc="T T T"
Si       1.31649753      -1.29407013       1.38658494       0.00000000
Si       0.89660649       1.86127748      -1.16552760       0.00000000
Si      -0.70629367      -1.84001319      -1.33828281       0.00000000
Si      -1.42455789       1.38538142       1.32812863       0.00000000
Si       1.93923165       0.13881361      -2.47093236       0.00000000
Si       0.06446279      -1.08457680      -3.44906958       0.00000000
Si       2.59288419      -2.69395128       0.11441980       0.00000000
Si      -2.68630475      -2.63102301      -0.14338930       0.00000000
Si      -0.05286757      -2.66254416       2.70290218       0.00000000
Si       2.66296377       0.05046479       2.70272859       0.00000000
