10
Lattice="16.28999089631971 0.0 0.0 0.0 16.28999089631971 0.0 0.0 0.0 34.71893929493243" Properties=species:S:1:pos:R:3:initial_magmoms:R:1 pbc="T T T"
Si      -1.60440210       1.69953570       0.20008536       0.00000000
Si       2.11543569       0.49502052       1.00369038       0.00000000
Si       0.01361844      -0.12580767      -2.39776073       0.00000000
Si      -0.74464848      -2.01262950       1.11152746       0.00000000
Si      -3.23763750       0.57907692      -1.02663961       0.00000000
Si       3.33312948      -1.36192545      -0.10144880       0.00000000
Si       2.07998865      -0.61761906       3.04787323       0.00000000
Si      -2.29482117      -0.22413411      -3.04679694       0.00000000
Si       1.20453147       1.81079640      -3.14171857       0.00000000
Si       0.70076322      -2.50691697       2.97701183       0.00000000
