10
Lattice="16.28999089631971 0.0 0.0 0.0 16.28999089631971 0.0 0.0 0.0 34.71893929493243" Properties=species:S:1:pos:R:3:initial_magmoms:R:1 pbc="T T T"
Si       1.45762920       0.41560677      -1.81635704       0.00000000
Si      -0.29854683      -2.23122501      -0.77944062       0.00000000
Si      -2.00094957       1.49612247      -0.20633477       0.00000000
Si       0.61802631       0.89379972       2.28433389       0.00000000
Si      -0.62061642       2.86163172       1.10413232       0.00000000
Si       1.80959094       2.55730194      -1.06514293       0.00000000
Si      -3.43271025       0.12162114       1.27442882       0.00000000
Si      -2.12995008      -1.76290380       2.47973219       0.00000000
Si       1.98342153      -3.11593491      -0.82929705       0.00000000
Si      -0.03469770       1.18573281      -3.64128967       0.00000000
