10
Lattice="16.28999089631971 0.0 0.0 0.0 16.28999089631971 0.0 0.0 0.0 34.71893929493243" Properties=species:S:1:pos:R:3:initial_magmoms:R:1 pbc="T T T"
Si      -0.38473722      -0.22491114       2.27662628       0.00000000
Si      -1.80413379      -1.02149444      -1.15541223       0.00000000
Si       1.00957275       1.86918953      -1.12722043       0.00000000
Si       1.71507636      -1.73734220       0.02006756       0.00000000
Si       2.28972240       0.42674099      -2.56479364       0.00000000
Si       0.04264722      -2.73433907       2.16628943       0.00000000
Si      -0.43925985      -2.32314689      -2.56573105       0.00000000
Si       3.57886413      -0.87596445      -1.14916281       0.00000000
Si       1.00538622      -3.57376277      -1.24536905       0.00000000
Si      -3.38465475      -2.05304240       0.28563287       0.00000000
