10
Lattice="16.28999089631971 0.0 0.0 0.0 16.28999089631971 0.0 0.0 0.0 34.71893929493243" Properties=species:S:1:pos:R:3:initial_magmoms:R:1 pbc="T T T"
Si       0.39974031      -0.37734060      -2.25520468       0.00000000
Si      -0.91548171      -1.80711390       1.23342021       0.00000000
Si      -1.73913669       1.67431063       0.11495278       0.00000000
Si       1.88107146       0.99358411       1.22901785       0.00000000
Si       0.15727995       2.33907295      -2.39352501       0.00000000
Si      -2.07813159      -0.36089452       2.69917827       0.00000000
Si       0.63475614       2.37994456       2.68476643       0.00000000
Si      -2.45571750      -2.81046387      -0.36319503       0.00000000
Si       2.60768691      -1.05314754      -2.61930240       0.00000000
Si      -3.22952508       1.45125166      -1.67473841       0.00000000
