10
Lattice="16.28999089631971 0.0 0.0 0.0 16.28999089631971 0.0 0.0 0.0 34.71893929493243" Properties=species:S:1:pos:R:3:initial_magmoms:R:1 pbc="T T T"
Si       1.42685739      -1.27689165       1.41012440       0.00000000
Si      -1.30737024       1.42157943       1.39526815       0.00000000
Si       0.74119500       1.82309535      -1.40014412       0.00000000
Si      -1.14631101      -1.72151091      -1.27861242       0.00000000
Si      -0.57891402       1.12806621      -3.38592968       0.00000000
Si       0.65800197      -3.41858682      -1.30640293       0.00000000
Si       2.66390370      -2.69970912      -0.00649592       0.00000000
Si       2.64157011       2.74001058      -0.07228487       0.00000000
Si       0.06351471      -2.64619647       2.77086802       0.00000000
Si      -2.64942189       0.07400547       2.76996532       0.00000000
