10
Lattice="16.28999089631971 0.0 0.0 0.0 16.28999089631971 0.0 0.0 0.0 34.71893929493243" Properties=species:S:1:pos:R:3:initial_magmoms:R:1 pbc="T T T"
Si       1.34270325       1.35351981       1.37296469       0.00000000
Si      -1.36517693      -1.36627488       1.36740966       0.00000000
Si       1.44332658      -1.28930463      -1.40677749       0.00000000
Si      -1.45374566       1.20759399      -1.49799808       0.00000000
Si      -0.42166665      -2.26763316      -2.49310419       0.00000000
Si      -2.39591039      -0.71983881      -2.78409042       0.00000000
Si       2.68451055       2.71419093      -0.00144084       0.00000000
Si      -2.73162842       2.69757513      -0.02337627       0.00000000
Si       2.70417258      -0.00781920       2.72821925       0.00000000
Si       2.71106325      -2.72308527       0.00696462       0.00000000
