10
Lattice="16.28999089631971 0.0 0.0 0.0 16.28999089631971 0.0 0.0 0.0 34.71893929493243" Properties=species:S:1:pos:R:3:initial_magmoms:R:1 pbc="T T T"
Si       1.36814823       1.35785295       1.34341539       0.00000000
Si      -1.35674523       1.35698958      -1.36178172       0.00000000
Si       1.35715248      -1.36024758      -1.36112206       0.00000000
Si      -1.36067112      -1.37244879       1.35893476       0.00000000
Si       0.07454304      -2.60227863       2.78904339       0.00000000
Si       2.71446786       2.71148679      -0.00715211       0.00000000
Si       2.71174743      -2.71568961      -0.00347190       0.00000000
Si      -2.71782360       2.71116099       0.00104157       0.00000000
Si       2.71373481      -0.00122175      -2.71786952       0.00000000
Si      -0.00043983       2.71313208      -2.71866806       0.00000000
