10
Lattice="16.28999089631971 0.0 0.0 0.0 16.28999089631971 0.0 0.0 0.0 34.71893929493243" Properties=species:S:1:pos:R:3:initial_magmoms:R:1 pbc="T T T"
Si       1.88149500       0.76621644      -1.18613850       0.00000000
Si       1.19534391      -0.03732039       2.10136498       0.00000000
Si      -1.82793348       1.67801661      -0.07339588       0.00000000
Si      -0.74640780      -2.01391641      -1.25717349       0.00000000
Si       0.54719739       1.94621517      -2.70280150       0.00000000
Si      -2.18162196      -0.78408657      -2.68728212       0.00000000
Si       2.58670539      -1.88328690       1.71709554       0.00000000
Si      -0.74797164       3.35018511      -1.37108640       0.00000000
Si      -3.59479575       0.47698749      -1.27585229       0.00000000
Si      -2.17008864       1.29425679       2.89747070       0.00000000
