10
Lattice="16.28999089631971 0.0 0.0 0.0 16.28999089631971 0.0 0.0 0.0 34.71893929493243" Properties=species:S:1:pos:R:3:initial_magmoms:R:1 pbc="T T T"
Si      -1.19073384       1.95150942       0.34059298       0.00000000
Si       2.27657637       0.45157509      -0.27532134       0.00000000
Si      -0.28030203      -1.53399672       1.74559981       0.00000000
Si      -0.69740748      -1.08996390      -1.98675769       0.00000000
Si       0.02987586      -3.55328883       0.65532035       0.00000000
Si      -1.48976937      -3.12823386      -1.04292280       0.00000000
Si       2.45874744      -0.00340461      -2.67856766       0.00000000
Si      -0.17229933       2.94291882       2.24558753       0.00000000
Si       3.27992634      -0.61830324       1.66342003       0.00000000
Si      -2.60454294      -1.62474831       2.18455160       0.00000000
