10
Lattice="16.28999089631971 0.0 0.0 0.0 16.28999089631971 0.0 0.0 0.0 34.71893929493243" Properties=species:S:1:pos:R:3:initial_magmoms:R:1 pbc="T T T"
Si      -1.62230481       0.72006687       1.50940673       0.00000000
Si       1.08398547       2.02162158      -0.40940596       0.00000000
Si      -0.93643065      -1.20945105      -1.80535113       0.00000000
Si       1.53544653      -1.27298205       1.30696048       0.00000000
Si      -3.41844021      -0.01239669       0.24077598       0.00000000
Si       2.53314387       1.30272759      -2.07626317       0.00000000
Si       1.87224228       0.41958153       3.01398752       0.00000000
Si       2.13983811       2.35924812       1.65710118       0.00000000
Si      -3.08376216      -1.87877457      -1.08830048       0.00000000
Si       0.45709740      -3.38486652       1.83645932       0.00000000
