10
Lattice="16.28999089631971 0.0 0.0 0.0 16.28999089631971 0.0 0.0 0.0 34.71893929493243" Properties=species:S:1:pos:R:3:initial_magmoms:R:1 pbc="T T T"
Si       1.93578957       1.30430772      -0.45311713       0.00000000
Si      -1.53187902       1.47575997       1.09093912       0.00000000
Si      -0.28821897      -1.40152644      -1.94731696       0.00000000
Si       0.59510628      -1.62997740       1.72667797       0.00000000
Si      -1.73087766      -2.08256247       2.28700725       0.00000000
Si      -2.45706957       0.13328478       2.76158069       0.00000000
Si       2.11077675      -1.45388250      -2.74821389       0.00000000
Si      -2.17142442      -0.36272943      -3.06252463       0.00000000
Si       2.58110163       0.83538378      -2.67686643       0.00000000
Si       1.31536863       3.55367979      -0.69705253       0.00000000
