10
Lattice="16.28999089631971 0.0 0.0 0.0 16.28999089631971 0.0 0.0 0.0 34.71893929493243" Properties=species:S:1:pos:R:3:initial_magmoms:R:1 pbc="T T T"
Si       1.35654975       1.35643572       1.35692106       0.00000000
Si      -1.35733656       1.35799956      -1.35681691       0.00000000
Si      -1.35682668      -1.35746199       1.35824038       0.00000000
Si       1.35759231      -1.35744570      -1.35765016       0.00000000
Si       0.00118917       2.71334385      -2.71415460       0.00000000
Si      -2.71450082      -2.71471221      -0.00052078       0.00000000
Si       2.71529865       2.71459818       0.00079854       0.00000000
Si       2.71511946      -2.71516833       0.00034719       0.00000000
Si       2.71384884      -0.00022806      -2.71651549       0.00000000
Si      -2.71551761       0.00042354      -2.71488369       0.00000000
