10
Lattice="16.28999089631971 0.0 0.0 0.0 16.28999089631971 0.0 0.0 0.0 34.71893929493243" Properties=species:S:1:pos:R:3:initial_magmoms:R:1 pbc="T T T"
Si      -0.78183855       0.61186869       2.10053315       0.00000000
Si       0.59715882       1.90462680      -1.39927819       0.00000000
Si      -1.06246638      -2.22821136      -0.15574925       0.00000000
Si       2.04375969      -1.66777020      -1.51204537       0.00000000
Si      -2.58069438       1.51088121       0.57001586       0.00000000
Si       3.04653951      -0.05558148      -0.03155953       0.00000000
Si       1.06326459       0.08881308      -2.87004272       0.00000000
Si       1.11856914      -3.01024539       0.15859620       0.00000000
Si      -1.68480954       2.78933670      -1.34942177       0.00000000
Si       0.99815346       1.71110160       3.33791336       0.00000000
