10
Lattice="16.28999089631971 0.0 0.0 0.0 16.28999089631971 0.0 0.0 0.0 34.71893929493243" Properties=species:S:1:pos:R:3:initial_magmoms:R:1 pbc="T T T"
Si       1.35622395       1.35589815      -1.35716410       0.00000000
Si       1.35764118      -1.35741312       1.35712938       0.00000000
Si      -1.35780408       1.35773892       1.35803207       0.00000000
Si      -1.35897696      -1.36016613      -1.35653915       0.00000000
Si       0.00133578      -2.71355562       2.71401572       0.00000000
Si       0.00087966      -2.71164969      -2.71637661       0.00000000
Si       2.71453302      -2.71425609       0.00020831       0.00000000
Si       2.71451673       2.71464705       0.00048607       0.00000000
Si      -2.71467963       2.71502172      -0.00031247       0.00000000
Si      -2.71555929      -2.71469592      -0.00027775       0.00000000
