10
Lattice="16.28999089631971 0.0 0.0 0.0 16.28999089631971 0.0 0.0 0.0 34.71893929493243" Properties=species:S:1:pos:R:3:initial_magmoms:R:1 pbc="T T T"
Si       1.91067039       0.95229711       0.84953820       0.00000000
Si      -2.07560664       1.04327676      -0.00774233       0.00000000
Si      -0.16537608      -1.22052825      -2.04150949       0.00000000
Si       0.19196136      -1.94500971       1.38858475       0.00000000
Si      -0.82647315      -2.93641911      -0.51640979       0.00000000
Si      -2.07479214       0.85206474       2.30408898       0.00000000
Si       3.18684528      -0.30926565      -0.76412956       0.00000000
Si      -1.25719704      -1.22611572       3.05544196       0.00000000
Si       2.06477379      -0.74440413      -2.81692271       0.00000000
Si       1.76878449       3.29911596       0.70708631       0.00000000
