10
Lattice="16.28999089631971 0.0 0.0 0.0 16.28999089631971 0.0 0.0 0.0 34.71893929493243" Properties=species:S:1:pos:R:3:initial_magmoms:R:1 pbc="T T T"
Si      -0.02867040       2.26627850       0.50877162       0.00000000
Si      -1.46416149      -0.75023595      -1.64019305       0.00000000
Si      -0.35440524      -1.32401862       1.89930064       0.00000000
Si       2.22426918      -0.72267327      -0.17279626       0.00000000
Si       1.45779210       2.00782136       2.34880699       0.00000000
Si      -1.62012195      -2.97851247      -0.88762490       0.00000000
Si       3.00716658       0.25223436       1.82680745       0.00000000
Si      -0.19756512      -0.11960118      -3.56463021       0.00000000
Si      -2.31208857       2.45461534       1.30702992       0.00000000
Si      -1.61930745      -3.16972449       1.42420640       0.00000000
