10
Lattice="16.28999089631971 0.0 0.0 0.0 16.28999089631971 0.0 0.0 0.0 34.71893929493243" Properties=species:S:1:pos:R:3:initial_magmoms:R:1 pbc="T T T"
Si      -0.39974031       0.37734060       2.25520468       0.00000000
Si       2.20794660      -0.67580694      -0.36409772       0.00000000
Si      -1.66389318      -0.76962105      -1.45746717       0.00000000
Si      -0.24246036       2.71641356      -0.13832033       0.00000000
Si       2.28674133       0.99437159      -2.04366207       0.00000000
Si      -1.68865398       0.96911069      -3.00426622       0.00000000
Si      -2.40075504       2.46196376      -1.30039860       0.00000000
Si       2.15187642      -2.67766875      -1.59672491       0.00000000
Si      -2.13887700       2.05165124       2.37015746       0.00000000
Si       2.08352358       3.16899863      -0.69864961       0.00000000
