10
Lattice="16.28999089631971 0.0 0.0 0.0 16.28999089631971 0.0 0.0 0.0 34.71893929493243" Properties=species:S:1:pos:R:3:initial_magmoms:R:1 pbc="T T T"
Si       0.57243060      -1.53176825      -1.63929035       0.00000000
Si      -1.39136148       1.84596651       0.38426943       0.00000000
Si      -0.74186289      -1.67800358       1.50090058       0.00000000
Si       1.92345804       1.42534242       0.70878754       0.00000000
Si       1.72827126       0.40244445       2.83445579       0.00000000
Si       0.47763909      -3.39331193       0.50554276       0.00000000
Si       0.37041831       3.17519793       1.53673055       0.00000000
Si       1.99554129      -0.22546989      -2.98069204       0.00000000
Si      -2.58670539       1.88328690      -1.71709554       0.00000000
Si      -0.11916135      -0.83746890       3.57091434       0.00000000
