10
Lattice="16.28999089631971 0.0 0.0 0.0 16.28999089631971 0.0 0.0 0.0 34.71893929493243" Properties=species:S:1:pos:R:3:initial_magmoms:R:1 pbc="T T T"
Si      -0.71490294      -1.96934697       1.25859840       0.00000000
Si      -1.80431298       1.69707591       0.02779052       0.00000000
Si       2.00590173       0.71887770       1.29990702       0.00000000
Si      -0.11271051      -0.17127306      -2.92427373       0.00000000
Si       2.51721225       0.66290526      -2.14629131       0.00000000
Si      -1.96121826      -0.58298652       2.71434698       0.00000000
Si      -2.43869445      -0.62385813      -2.36394446       0.00000000
Si       0.76885542       2.14169517       2.71652733       0.00000000
Si      -0.65800197       3.41858682       1.30640293       0.00000000
Si      -3.45799233       0.64676187       1.31912049       0.00000000
