10
Lattice="16.28999089631971 0.0 0.0 0.0 16.28999089631971 0.0 0.0 0.0 34.71893929493243" Properties=species:S:1:pos:R:3:initial_magmoms:R:1 pbc="T T T"
Si      -2.32598394      -0.45258507       0.56032927       0.00000000
Si      -0.59510628       1.62997740      -1.72667797       0.00000000
Si       0.20321775      -2.17462703      -1.34501246       0.00000000
Si       2.62992276       0.83417832       0.77798243       0.00000000
Si       0.11271051       0.17127306       2.92427373       0.00000000
Si      -3.05217585       1.76326218       1.03490272       0.00000000
Si      -0.88332525       0.22845096      -3.67399493       0.00000000
Si      -2.12698530       3.10573737      -0.63573885       0.00000000
Si      -2.08352358      -3.16899863       0.69864961       0.00000000
Si       0.12442302      -3.84480557       0.33455189       0.00000000
