10
Lattice="16.28999089631971 0.0 0.0 0.0 16.28999089631971 0.0 0.0 0.0 34.71893929493243" Properties=species:S:1:pos:R:3:initial_magmoms:R:1 pbc="T T T"
Si      -1.35677781       1.35477414       1.35351860       0.00000000
Si       1.35741114       1.35684297      -1.35747657       0.00000000
Si      -1.35751086      -1.35793440      -1.35719881       0.00000000
Si       1.35493704      -1.35672894       1.36379542       0.00000000
Si      -2.70309744       0.00114030       2.70408610       0.00000000
Si       0.01202202       2.71029762       2.70571789       0.00000000
Si      -2.71296918       2.71384884      -0.00031247       0.00000000
Si      -0.00006516       2.71420722      -2.71502257       0.00000000
Si      -2.71479366      -0.00042354      -2.71491841       0.00000000
Si       2.71523579      -0.00061902      -2.71464066       0.00000000
