10
Lattice="16.28999089631971 0.0 0.0 0.0 16.28999089631971 0.0 0.0 0.0 34.71893929493243" Properties=species:S:1:pos:R:3:initial_magmoms:R:1 pbc="T T T"
Si      -1.29516903       1.40396994       1.33171510       0.00000000
Si       1.34631963       1.35363384      -1.35056749       0.00000000
Si       1.33429761      -1.17999873       1.51666299       0.00000000
Si      -1.36814823      -1.35785295      -1.34341539       0.00000000
Si      -0.54719739      -1.94621517       2.70280150       0.00000000
Si      -2.37513087      -0.26819856       2.62940562       0.00000000
Si       2.11396959       0.86312565       2.88917287       0.00000000
Si       0.27274347       2.53482174       2.71328662       0.00000000
Si       2.69084736      -2.70308115       0.03475368       0.00000000
Si       2.70309744      -0.00114030      -2.70408610       0.00000000
