10
Lattice="16.28999089631971 0.0 0.0 0.0 16.28999089631971 0.0 0.0 0.0 34.71893929493243" Properties=species:S:1:pos:R:3:initial_magmoms:R:1 pbc="T T T"
Si      -0.28331568       0.83642634      -2.16621999       0.00000000
Si      -2.09767959       0.57940272       0.95952786       0.00000000
Si       1.92351735       1.22038164       0.68580359       0.00000000
Si      -0.46455822      -2.13092748      -1.02136233       0.00000000
Si      -1.46790819      -1.06104915      -2.96010370       0.00000000
Si       0.98033287       3.45494610       0.32413620       0.00000000
Si      -2.68581375      -1.39701411       2.08758155       0.00000000
Si      -2.16614646      -3.01788540       0.45846385       0.00000000
Si       1.76466379       0.28144233      -3.31753538       0.00000000
Si      -2.03462100       2.26834992       2.59513801       0.00000000
