10
Lattice="16.28999089631971 0.0 0.0 0.0 16.28999089631971 0.0 0.0 0.0 34.71893929493243" Properties=species:S:1:pos:R:3:initial_magmoms:R:1 pbc="T T T"
Si      -1.85864013      -0.02873556      -1.39764640       0.00000000
Si      -0.51966729       1.62087129       1.62911770       0.00000000
Si       0.58248153      -2.03155848       1.06757326       0.00000000
Si       1.70158824       0.88695792      -1.47982618       0.00000000
Si      -1.54846224      -2.04802767      -2.48792586       0.00000000
Si       0.45551727      -1.33056720       3.32937454       0.00000000
Si       0.06846687       3.59728812       0.50106401       0.00000000
Si       0.92584215       0.95869908       3.40072200       0.00000000
Si       2.16614646       3.01788540      -0.45846385       0.00000000
Si      -1.57833810       1.50526116      -3.14324621       0.00000000
