10
Lattice="16.28999089631971 0.0 0.0 0.0 16.28999089631971 0.0 0.0 0.0 34.71893929493243" Properties=species:S:1:pos:R:3:initial_magmoms:R:1 pbc="T T T"
Si      -1.35656604       1.35687555       1.35699050       0.00000000
Si       1.35624024       1.35786924      -1.35699050       0.00000000
Si      -1.35676152      -1.35728280      -1.35709466       0.00000000
Si       1.35747630      -1.35736425       1.35754600       0.00000000
Si      -2.71290402      -0.00035838       2.71471010       0.00000000
Si       0.00074934       2.71394658       2.71446707       0.00000000
Si      -0.00030951      -2.71290402      -2.71578639       0.00000000
Si      -2.71474479       2.71427238       0.00038191       0.00000000
Si       0.00006516      -2.71420722       2.71502257       0.00000000
Si      -2.71472850      -2.71463076       0.00010416       0.00000000
