10
Lattice="16.28999089631971 0.0 0.0 0.0 16.28999089631971 0.0 0.0 0.0 34.71893929493243" Properties=species:S:1:pos:R:3:initial_magmoms:R:1 pbc="T T T"
Si       0.10225233      -1.85104899       1.64658134       0.00000000
Si      -2.15775711      -1.02257217      -0.90460247       0.00000000
Si      -0.32566968       2.15182755       1.35435186       0.00000000
Si       1.75562217      -0.25001892      -2.07379812       0.00000000
Si       2.81166770       0.13786227       0.14765973       0.00000000
Si      -0.06752205      -1.26167679      -3.61170912       0.00000000
Si       0.96770745       3.72350304      -0.10325418       0.00000000
Si      -1.27669617      -2.80885212      -2.31540736       0.00000000
Si      -2.12789754      -2.32717311       2.42199456       0.00000000
Si       1.34037378      -3.79930041       0.26462790       0.00000000
