10
Lattice="16.28999089631971 0.0 0.0 0.0 16.28999089631971 0.0 0.0 0.0 34.71893929493243" Properties=species:S:1:pos:R:3:initial_magmoms:R:1 pbc="T T T"
Si      -1.35704525      -1.35537850       1.35782376       0.00000000
Si       1.35717730      -1.35767213      -1.35664331       0.00000000
Si      -1.35797378       1.35729909      -1.35671275       0.00000000
Si       1.35767414       1.35725022       1.35876117       0.00000000
Si       2.71417502      -0.00136836      -2.71457122       0.00000000
Si       2.71450082       2.71471221       0.00052078       0.00000000
Si      -0.00076408      -2.71637699      -2.71290471       0.00000000
Si      -0.00101678       2.71513575      -2.71436291       0.00000000
Si      -2.71537061      -2.71467738       0.00052078       0.00000000
Si       2.71500581      -2.71557392       0.00055550       0.00000000
