10
Lattice="16.28999089631971 0.0 0.0 0.0 16.28999089631971 0.0 0.0 0.0 34.71893929493243" Properties=species:S:1:pos:R:3:initial_magmoms:R:1 pbc="T T T"
Si       2.06676836       0.03412755       1.15006551       0.00000000
Si      -0.74152080       2.25453178       0.17987893       0.00000000
Si       0.14247234      -1.09081098      -2.13170935       0.00000000
Si      -1.01408508      -1.98724968       0.96338167       0.00000000
Si       0.06353100      -3.16894257      -0.82585987       0.00000000
Si      -3.18265875      -1.17920052       1.12725515       0.00000000
Si       2.20153553      -2.24259543       2.12469612       0.00000000
Si       1.81116034       1.76463447       2.87827111       0.00000000
Si       0.13445766       3.53267288      -1.63061061       0.00000000
Si       0.56761432       3.51190313       1.77577058       0.00000000
