10
Lattice="16.28999089631971 0.0 0.0 0.0 16.28999089631971 0.0 0.0 0.0 34.71893929493243" Properties=species:S:1:pos:R:3:initial_magmoms:R:1 pbc="T T T"
Si       2.16857367      -0.80804916      -0.16387349       0.00000000
Si       0.05607018       2.00186181       1.23262719       0.00000000
Si      -1.90355166      -1.07134443      -0.87481360       0.00000000
Si      -1.51000155      -2.67573024       1.10743063       0.00000000
Si       3.18265875       1.17920052      -1.12725515       0.00000000
Si       0.13486491       3.67204034      -0.44693716       0.00000000
Si      -2.15187642       2.67766875       1.59672491       0.00000000
Si      -1.95952410      -1.36594908      -3.22223184       0.00000000
Si       1.25737623      -0.31710114       3.81644682       0.00000000
Si       3.20442219      -1.95471855       1.68168220       0.00000000
