10
Lattice="16.28999089631971 0.0 0.0 0.0 16.28999089631971 0.0 0.0 0.0 34.71893929493243" Properties=species:S:1:pos:R:3:initial_magmoms:R:1 pbc="T T T"
Si      -0.63936621       2.17271133      -0.37142342       0.00000000
Si       0.22644729      -0.66038031       2.20857712       0.00000000
Si      -1.97797090      -1.05852420      -0.63077404       0.00000000
Si       2.09629494      -0.18440280      -1.10586827       0.00000000
Si      -1.18267029      -3.26298474      -0.75944250       0.00000000
Si      -1.27873242       1.80025677      -2.81876282       0.00000000
Si       3.52663839       0.35080515       0.74433976       0.00000000
Si       2.26745397       0.37286181       2.87556304       0.00000000
Si      -2.18701395      -0.42733557      -2.94090412       0.00000000
Si       0.95390982      -2.99587761       2.10021925       0.00000000
