10
Lattice="16.28999089631971 0.0 0.0 0.0 16.28999089631971 0.0 0.0 0.0 34.71893929493243" Properties=species:S:1:pos:R:3:initial_magmoms:R:1 pbc="T T T"
Si      -0.22644729       0.66038031      -2.20857712       0.00000000
Si       2.04100668       1.03324212       0.66698592       0.00000000
Si      -2.04556462       0.54079542       1.16398781       0.00000000
Si       0.72746253      -2.33549730      -0.10835787       0.00000000
Si       2.45254095      -0.56441592       2.35602854       0.00000000
Si      -1.09146258       0.65650329       3.32767332       0.00000000
Si      -2.20441819      -0.39814389      -2.83935116       0.00000000
Si       3.30019110       1.01118546      -1.46423736       0.00000000
Si       1.86984765       0.47597751      -3.31444539       0.00000000
Si       2.78721900      -2.43079380       1.02695208       0.00000000
