10
Lattice="16.28999089631971 0.0 0.0 0.0 16.28999089631971 0.0 0.0 0.0 34.71893929493243" Properties=species:S:1:pos:R:3:initial_magmoms:R:1 pbc="T T T"
Si       1.27638666      -1.39988115      -1.27216514       0.00000000
Si      -1.31649753       1.29407013      -1.38658494       0.00000000
Si       1.34646624       1.34453492       1.31614365       0.00000000
Si      -1.36936509      -1.36847403       1.31631724       0.00000000
Si      -0.42619527      -2.32916049      -2.47214332       0.00000000
Si      -2.02279120      -0.54594306      -2.72486776       0.00000000
Si       2.23513461       0.17739551      -2.66875331       0.00000000
Si      -0.00822645       2.69930906       2.67063438       0.00000000
Si       2.70767493      -0.01547340       2.67164123       0.00000000
Si      -2.72316555      -0.01569957       2.67230089       0.00000000
