10
Lattice="16.28999089631971 0.0 0.0 0.0 16.28999089631971 0.0 0.0 0.0 34.71893929493243" Properties=species:S:1:pos:R:3:initial_magmoms:R:1 pbc="T T T"
Si       1.35694071      -1.35693419      -1.35851813       0.00000000
Si      -1.35783666       1.35850455      -1.35747657       0.00000000
Si       1.35715248       1.33977105       1.38334219       0.00000000
Si      -1.35274278      -1.35184031       1.38736959       0.00000000
Si       2.71410948       0.00079821      -2.71536976       0.00000000
Si       2.71337643      -2.71625066       0.00118044       0.00000000
Si      -2.71400264      -2.71577503       0.00527728       0.00000000
Si      -0.00050499      -2.71431959      -2.71568223       0.00000000
Si      -0.00100998       2.71596654      -2.71571695       0.00000000
Si      -2.71551080       0.00125433      -2.71623773       0.00000000
