10
Lattice="16.28999089631971 0.0 0.0 0.0 16.28999089631971 0.0 0.0 0.0 34.71893929493243" Properties=species:S:1:pos:R:3:initial_magmoms:R:1 pbc="T T T"
Si       0.94835493       1.73344563      -1.41111736       0.00000000
Si      -1.82955091      -1.02451068      -1.42663673       0.00000000
Si       1.72719612      -1.97097597      -0.06048043       0.00000000
Si      -1.13188459       1.35762489       2.08844952       0.00000000
Si      -0.67636732      -0.56306385       3.34173449       0.00000000
Si       2.13213294       0.27859158      -2.90455337       0.00000000
Si      -1.63723622      -2.39278923       2.25326042       0.00000000
Si       2.77659792       2.49028718       0.06718119       0.00000000
Si      -0.58312824      -2.44113795      -2.89747070       0.00000000
Si      -2.69328176      -2.78067042       0.03180257       0.00000000
