10
Lattice="16.28999089631971 0.0 0.0 0.0 16.28999089631971 0.0 0.0 0.0 34.71893929493243" Properties=species:S:1:pos:R:3:initial_magmoms:R:1 pbc="T T T"
Si       0.45551727      -1.92068874       1.25328497       0.00000000
Si      -2.34931189      -0.16477335      -0.08610302       0.00000000
Si       0.11739226       1.59131050       1.95179570       0.00000000
Si       1.13188459      -1.35762489      -2.08844952       0.00000000
Si      -2.25452038       1.69677033      -2.23093613       0.00000000
Si      -0.50535164      -3.75041412       0.16481090       0.00000000
Si       2.49048688       1.61037143       2.49261292       0.00000000
Si       2.80602418      -2.12864688       1.67046798       0.00000000
Si       3.74328562      -0.00793323       1.23908492       0.00000000
Si      -3.56881387       1.55053500       0.90925481       0.00000000
