10
Lattice="10.86 0.0 0.0 0.0 10.86 0.0 0.0 0.0 10.86" Properties=species:S:1:pos:R:3:initial_magmoms:R:1 pbc="T T T"
Si       1.25656716      -1.31693790      -1.41676302       0.00000000
Si      -1.45843284      -1.31693790       1.29823698       0.00000000
Si       1.47815460       1.50800874       1.25675178       0.00000000
Si      -1.45843284       1.39806210      -1.41676302       0.00000000
Si       0.18527160       2.58551622      -2.57582910       0.00000000
Si       2.61406716      -2.67443790      -0.05926302       0.00000000
Si      -0.10093284      -2.67443790       2.65573698       0.00000000
Si       2.64909066       0.07344618       2.76609630       0.00000000
Si      -0.10093284      -2.67443790      -2.77426302       0.00000000
Si       0.07658472       2.79136752       2.67240708       0.00000000
