10
Lattice="10.86 0.0 0.0 0.0 10.86 0.0 0.0 0.0 10.86" Properties=species:S:1:pos:R:3:initial_magmoms:R:1 pbc="T T T"
Si       1.43605038       1.36513458       1.25928216       0.00000000
Si      -1.27894962       1.36513458      -1.45571784       0.00000000
Si       1.43605038      -1.34986542      -1.45571784       0.00000000
Si      -1.41225612      -1.57627470       1.32097782       0.00000000
Si       2.49152292      -2.55061218      -0.09883686       0.00000000
Si      -2.35708698      -0.16105380       2.68043262       0.00000000
Si      -2.35024518      -2.87741130       0.10021608       0.00000000
Si       2.62742496      -0.03567510       2.62861956       0.00000000
Si       0.07855038       2.72263458       2.61678216       0.00000000
Si      -2.63644962       2.72263458      -0.09821784       0.00000000
