10
Lattice="10.86 0.0 0.0 0.0 10.86 0.0 0.0 0.0 10.86" Properties=species:S:1:pos:R:3:initial_magmoms:R:1 pbc="T T T"
Si      -1.05547254       1.20074676      -1.35688098       0.00000000
Si       1.65952746       1.20074676       1.35811902       0.00000000
Si       1.65952746      -1.51425324      -1.35688098       0.00000000
Si      -2.49152292       2.55061218       0.09883686       0.00000000
Si      -2.41297254      -0.15675324      -2.71438098       0.00000000
Si       0.13590204       2.51493708       2.72745642       0.00000000
Si       0.30202746       2.55824676      -2.71438098       0.00000000
Si      -2.31145326      -2.96319444      -0.10649316       0.00000000
Si       3.01702746       2.55824676       0.00061902       0.00000000
Si       0.30202746      -2.87175324      -2.71438098       0.00000000
