10
Lattice="10.86 0.0 0.0 0.0 10.86 0.0 0.0 0.0 10.86" Properties=species:S:1:pos:R:3:initial_magmoms:R:1 pbc="T T T"
Si      -1.19137458       1.40080968      -1.36933740       0.00000000
Si       1.52362542      -1.31419032      -1.36933740       0.00000000
Si       1.52362542       1.40080968       1.34566260       0.00000000
Si      -0.13590204      -2.51493708      -2.72745642       0.00000000
Si      -2.62742496       0.03567510      -2.62861956       0.00000000
Si      -2.54887458       2.75830968      -0.01183740       0.00000000
Si      -2.57009502      -0.04447170       2.81395632       0.00000000
Si       0.16612542       2.75830968       2.70316260       0.00000000
Si       0.16612542       2.75830968      -2.72683740       0.00000000
Si       0.30039846      -2.68384266       2.80221666       0.00000000
