10
Lattice="10.86 0.0 0.0 0.0 10.86 0.0 0.0 0.0 10.86" Properties=species:S:1:pos:R:3:initial_magmoms:R:1 pbc="T T T"
Si      -1.26769866      -1.39998432       1.15604700       0.00000000
Si      -1.26769866       1.31501568      -1.55895300       0.00000000
Si       1.43815722       0.68992494       1.97307738       0.00000000
Si       1.44730134      -1.39998432      -1.55895300       0.00000000
Si       2.30961792       2.44239228       0.19029978       0.00000000
Si       0.15074766       2.48465940       2.45998548       0.00000000
Si      -2.62519866      -0.04248432       2.51354700       0.00000000
Si      -2.62519866       2.67251568      -0.20145300       0.00000000
Si      -2.62519866      -2.75748432      -0.20145300       0.00000000
Si       0.23446740      -2.91168546       2.54186988       0.00000000
