10
Lattice="10.86 0.0 0.0 0.0 10.86 0.0 0.0 0.0 10.86" Properties=species:S:1:pos:R:3:initial_magmoms:R:1 pbc="T T T"
Si       1.13465280       1.20865284       1.48616928       0.00000000
Si      -1.58034720       1.20865284      -1.22883072       0.00000000
Si      -1.58034720      -1.50634716       1.48616928       0.00000000
Si       2.34366402       0.15359298      -2.39918034       0.00000000
Si       2.49215280       2.56615284       0.12866928       0.00000000
Si      -0.22284720       2.56615284      -2.58633072       0.00000000
Si       2.49215280      -0.14884716       2.84366928       0.00000000
Si      -0.22284720       2.56615284       2.84366928       0.00000000
Si      -2.58199758      -2.85097806      -0.01741944       0.00000000
Si      -2.93784720       2.56615284       0.12866928       0.00000000
