10
Lattice="10.86 0.0 0.0 0.0 10.86 0.0 0.0 0.0 10.86" Properties=species:S:1:pos:R:3:initial_magmoms:R:1 pbc="T T T"
Si      -1.31939226      -1.24992084       1.36178970       0.00000000
Si       1.39560774      -1.24992084      -1.35321030       0.00000000
Si      -1.31939226       1.46507916      -1.35321030       0.00000000
Si      -2.53222620      -0.04662198       2.74761258       0.00000000
Si      -2.67689226      -2.60742084       0.00428970       0.00000000
Si       0.03810774      -2.60742084      -2.71071030       0.00000000
Si       0.03810774      -2.60742084       2.71928970       0.00000000
Si       2.75310774      -2.60742084       0.00428970       0.00000000
Si      -2.67689226       0.10757916      -2.71071030       0.00000000
Si       2.75310774       0.10757916      -2.71071030       0.00000000
