10
Lattice="16.28999089631971 0.0 0.0 0.0 16.28999089631971 0.0 0.0 0.0 34.397273925272025" Properties=species:S:1:pos:R:3:initial_magmoms:R:1 pbc="T T T"
Si       1.05492411       1.66662827       1.38098253       0.00000000
Si      -1.58542914      -1.21555233       1.34954340       0.00000000
Si      -1.40058325       1.29322889      -1.49359926       0.00000000
Si       1.31558040      -1.42432497      -1.48389923       0.00000000
Si       2.68078014       2.71001906      -0.07522688       0.00000000
Si       2.72533329      -2.77041654       0.03959128       0.00000000
Si      -2.69162521      -2.82085038       0.02136072       0.00000000
Si      -2.77768025       2.73673466      -0.12840510       0.00000000
Si      -0.04476492       2.65316696      -2.87853748       0.00000000
Si       2.67157629      -0.06568483      -2.87802152       0.00000000
