10
Lattice="16.28999089631971 0.0 0.0 0.0 16.28999089631971 0.0 0.0 0.0 34.397273925272025" Properties=species:S:1:pos:R:3:initial_magmoms:R:1 pbc="T T T"
Si       1.38219021       0.92995375       1.63858385       0.00000000
Si      -2.24755478       0.70694365       0.10972737       0.00000000
Si       0.59790816      -2.26716142       0.45982301       0.00000000
Si       0.40022901       1.63145002      -1.83313494       0.00000000
Si      -3.28379426      -1.37112132       0.51083420       0.00000000
Si       3.38919966      -0.42809143       1.47777651       0.00000000
Si       1.93043016       3.08484382       0.86120503       0.00000000
Si      -0.39807873      -3.50735170      -1.33949939       0.00000000
Si      -0.21146049      -2.68071565       2.65897955       0.00000000
Si       1.68647112       0.27392287      -3.39387772       0.00000000
