10
Lattice="16.28999089631971 0.0 0.0 0.0 16.28999089631971 0.0 0.0 0.0 34.397273925272025" Properties=species:S:1:pos:R:3:initial_magmoms:R:1 pbc="T T T"
Si      -1.35123921       1.34848620       1.35745478       0.00000000
Si      -1.35698958      -1.35710361      -1.35453101       0.00000000
Si       1.35733167       1.35703845      -1.35459980       0.00000000
Si       1.35591444      -1.35630540       1.36079131       0.00000000
Si      -2.70425403      -0.01088172       2.71023152       0.00000000
Si      -0.00045612      -2.71437012      -2.71140103       0.00000000
Si      -2.71342204      -2.71235016       0.00402448       0.00000000
Si       2.71508688       0.00029322      -2.71116025       0.00000000
Si      -2.71478714       0.00039096      -2.71171061       0.00000000
Si      -0.00006516       2.71526607      -2.71143543       0.00000000
