10
Lattice="16.28999089631971 0.0 0.0 0.0 16.28999089631971 0.0 0.0 0.0 34.397273925272025" Properties=species:S:1:pos:R:3:initial_magmoms:R:1 pbc="T T T"
Si      -0.91183635      -0.36774023       2.15141310       0.00000000
Si      -0.71570475       1.57009536      -1.62186677       0.00000000
Si       2.22033058       0.83432493       0.02927210       0.00000000
Si      -0.32322978      -2.15338229      -0.96044122       0.00000000
Si      -0.18243531       0.29913327      -3.53910309       0.00000000
Si       1.85365897      -3.08852603      -0.98985090       0.00000000
Si      -3.06772011       0.57306591       2.10074588       0.00000000
Si       3.39374815      -0.42973183       1.59046204       0.00000000
Si      -1.21867479      -1.77893169      -3.13799626       0.00000000
Si      -0.96341049      -2.70530378       2.54161599       0.00000000
