10
Lattice="16.28999089631971 0.0 0.0 0.0 16.28999089631971 0.0 0.0 0.0 34.397273925272025" Properties=species:S:1:pos:R:3:initial_magmoms:R:1 pbc="T T T"
Si       2.27677185      -0.34740054      -0.47368512       0.00000000
Si      -0.06357987      -0.90205875       2.17672951       0.00000000
Si      -0.58865544       2.28760470       0.07474532       0.00000000
Si      -1.40416542      -1.27451331      -1.50047872       0.00000000
Si       2.26098684      -2.75641461      -0.18096416       0.00000000
Si      -2.67022422       2.06936757       1.19121266       0.00000000
Si      -3.35733642      -0.19029978       1.30627160       0.00000000
Si       0.86108940      -3.06727668       1.75364280       0.00000000
Si       2.40728733       0.50096637      -2.88445381       0.00000000
Si       1.33648047       0.38951019       3.57043903       0.00000000
