10
Lattice="16.28999089631971 0.0 0.0 0.0 16.28999089631971 0.0 0.0 0.0 34.397273925272025" Properties=species:S:1:pos:R:3:initial_magmoms:R:1 pbc="T T T"
Si      -2.16577179      -0.03002247       0.82687653       0.00000000
Si      -0.32721723       0.78273450      -2.21212432       0.00000000
Si       1.40416542       1.27451331       1.50047872       0.00000000
Si       0.37142829      -2.40583752      -0.40224195       0.00000000
Si      -1.95317100       1.08421353       2.80675033       0.00000000
Si      -0.07066602       3.06427932      -1.96037053       0.00000000
Si       0.93400344      -0.63491904      -3.62815769       0.00000000
Si      -2.71401174      -2.18491254       1.60425536       0.00000000
Si      -0.70700229      -3.54295771       1.44344801       0.00000000
Si       1.34058555       0.37245456       3.67720823       0.00000000
