10
Lattice="16.28999089631971 0.0 0.0 0.0 16.28999089631971 0.0 0.0 0.0 34.397273925272025" Properties=species:S:1:pos:R:3:initial_magmoms:R:1 pbc="T T T"
Si      -1.99853865       0.08040744      -1.27235587       0.00000000
Si       1.49429799       1.41325524      -1.20889287       0.00000000
Si       0.25725168       0.57855564       2.42208540       0.00000000
Si      -0.79734663      -2.22190713      -0.91634389       0.00000000
Si       2.09513835      -0.79851951       2.84331465       0.00000000
Si       0.44952255      -3.64962789       0.54389000       0.00000000
Si      -3.46466146       1.40475186      -0.02445648       0.00000000
Si       2.08907847      -0.06908589      -3.13066964       0.00000000
Si       0.53805870      -2.73924495       2.69368642       0.00000000
Si       3.35860704       1.96146261       0.21831962       0.00000000
