10
Lattice="16.28999089631971 0.0 0.0 0.0 16.28999089631971 0.0 0.0 0.0 34.397273925272025" Properties=species:S:1:pos:R:3:initial_magmoms:R:1 pbc="T T T"
Si       1.83788667      -1.37707515       0.42122925       0.00000000
Si       0.45369279       2.28581280       0.55355564       0.00000000
Si      -1.43725041      -0.40967721       1.88228868       0.00000000
Si      -0.25725168      -0.57855564      -2.42208540       0.00000000
Si       0.28080702      -3.31780059       0.27160103       0.00000000
Si      -1.69546320       3.32917101       0.14584452       0.00000000
Si       1.00075986       2.12841882       2.91372591       0.00000000
Si      -3.53180232       0.47065068       1.40279041       0.00000000
Si       3.63749184      -0.71045577      -1.10831518       0.00000000
Si      -0.78301143       0.89059059       3.74129038       0.00000000
