10
Lattice="16.28999089631971 0.0 0.0 0.0 16.28999089631971 0.0 0.0 0.0 34.397273925272025" Properties=species:S:1:pos:R:3:initial_magmoms:R:1 pbc="T T T"
Si      -1.54952109      -0.39036541       1.73812962       0.00000000
Si       0.15832251      -1.37129383      -1.94795311       0.00000000
Si       1.96261920       0.58572324       1.22722662       0.00000000
Si      -0.13685229       2.14441560      -1.04574651       0.00000000
Si      -0.93452472       1.76125851       2.71676701       0.00000000
Si       1.26612396       2.69785206       2.15708865       0.00000000
Si       2.52012816      -1.61820413       2.25577448       0.00000000
Si      -3.68430020      -0.27830976       0.67191672       0.00000000
Si       2.37724857      -2.18566907      -1.93780591       0.00000000
Si      -0.60996276       0.03135825      -3.72409174       0.00000000
