10
Lattice="16.28999089631971 0.0 0.0 0.0 16.28999089631971 0.0 0.0 0.0 34.397273925272025" Properties=species:S:1:pos:R:3:initial_magmoms:R:1 pbc="T T T"
Si      -0.02169828       0.63961335      -2.27809833       0.00000000
Si       0.89189379       1.73493128       1.40102724       0.00000000
Si      -1.78922844      -0.85121766       1.41772369       0.00000000
Si       2.01269466      -1.95434388       0.19157023       0.00000000
Si      -0.51074037      -2.22259131       2.89792177       0.00000000
Si       2.22286824       0.49106205       2.90406856       0.00000000
Si      -3.23770266      -1.96952616      -0.09294149       0.00000000
Si       2.22773895       3.16769543       0.07770349       0.00000000
Si       0.79185690      -3.55320738       1.44911810       0.00000000
Si       3.56996979      -0.83468331       1.50920673       0.00000000
