10
Lattice="16.28999089631971 0.0 0.0 0.0 16.28999089631971 0.0 0.0 0.0 34.397273925272025" Properties=species:S:1:pos:R:3:initial_magmoms:R:1 pbc="T T T"
Si       1.35651717       1.35626772       1.35683563       0.00000000
Si       1.35490446      -1.35901694      -1.35831471       0.00000000
Si      -1.35866745      -1.35904952       1.35669804       0.00000000
Si      -1.36029645       1.35713272      -1.35914024       0.00000000
Si       0.00050499      -2.70235550      -2.72299636       0.00000000
Si       2.71401174       2.71217076      -0.00034397       0.00000000
Si      -2.70713736      -0.00323282      -2.71928489       0.00000000
Si      -0.00107514       2.71334364       2.71429040       0.00000000
Si       2.71391400      -0.00216808       2.71418721       0.00000000
Si      -2.71437012       2.71384863      -0.00010319       0.00000000
