10
Lattice="16.28999089631971 0.0 0.0 0.0 16.28999089631971 0.0 0.0 0.0 34.397273925272025" Properties=species:S:1:pos:R:3:initial_magmoms:R:1 pbc="T T T"
Si      -1.35718506       1.35698958      -1.35748917       0.00000000
Si       1.35759231      -1.35707592      -1.35745478       0.00000000
Si      -1.35606105      -1.35736914       1.35869308       0.00000000
Si       1.35889551       1.35840681       1.35659484       0.00000000
Si       0.00107514      -2.71334364      -2.71429040       0.00000000
Si      -2.71329498       0.00050499      -2.71439359       0.00000000
Si       0.00151497       2.70958086       2.71814290       0.00000000
Si      -2.71459818      -2.71501125       0.00030958       0.00000000
Si      -2.71505430       2.71463076      -0.00027518       0.00000000
Si       2.71508688      -0.00117288      -2.71463438       0.00000000
