10
Lattice="16.28999089631971 0.0 0.0 0.0 16.28999089631971 0.0 0.0 0.0 34.397273925272025" Properties=species:S:1:pos:R:3:initial_magmoms:R:1 pbc="T T T"
Si       2.13667785      -0.83147418       0.62104313       0.00000000
Si      -1.39989744      -0.31086207       1.93460696       0.00000000
Si       0.01578501       2.40901407      -0.29272096       0.00000000
Si      -0.90044604      -1.27319382      -2.05843721       0.00000000
Si      -2.26098684       2.75641461       0.18096416       0.00000000
Si       3.56866659       1.05676488       0.28587590       0.00000000
Si      -2.32456671       1.85435586       2.35769366       0.00000000
Si      -3.29372397      -0.92393622      -1.72175651       0.00000000
Si       1.90236249      -1.68579508       2.91100852       0.00000000
Si      -0.17252739      -0.89174718       3.85122413       0.00000000
