10
Lattice="16.28999089631971 0.0 0.0 0.0 16.28999089631971 0.0 0.0 0.0 34.397273925272025" Properties=species:S:1:pos:R:3:initial_magmoms:R:1 pbc="T T T"
Si      -2.27677185       0.34740054       0.47368512       0.00000000
Si      -0.01578501      -2.40901407       0.29272096       0.00000000
Si       1.50977349       1.48015827       1.25894093       0.00000000
Si       0.13051548       0.84836691      -2.41076869       0.00000000
Si      -2.34035172      -0.55465821       2.65041463       0.00000000
Si      -1.41568245      -2.71987614       2.22732792       0.00000000
Si      -0.36518922       3.15990162      -2.15172267       0.00000000
Si       3.55288158      -1.35224919       0.57859687       0.00000000
Si       2.43872703       2.95210638      -0.42140124       0.00000000
Si       0.16964406       2.53817748       2.91324435       0.00000000
