10
Lattice="16.28999089631971 0.0 0.0 0.0 16.28999089631971 0.0 0.0 0.0 34.397273925272025" Properties=species:S:1:pos:R:3:initial_magmoms:R:1 pbc="T T T"
Si      -1.40006034      -1.29156894      -1.39370952       0.00000000
Si      -1.21569012       0.62421651       1.93715236       0.00000000
Si       1.26398997      -1.84285512       0.82704852       0.00000000
Si       1.10993544       1.80126675      -1.13087981       0.00000000
Si      -1.42957782      -1.44539541       3.02771854       0.00000000
Si       0.85276521      -1.89667728       3.12771147       0.00000000
Si       2.45006487       0.74324754      -2.78518322       0.00000000
Si      -1.33648047      -0.38951019      -3.57043903       0.00000000
Si       0.24961167       1.87276356       3.33461119       0.00000000
Si       3.52497681      -1.55874123       0.40083166       0.00000000
