10
Lattice="16.28999089631971 0.0 0.0 0.0 16.28999089631971 0.0 0.0 0.0 34.397273925272025" Properties=species:S:1:pos:R:3:initial_magmoms:R:1 pbc="T T T"
Si      -2.28234303       0.45128187      -0.09999293       0.00000000
Si       0.41122476       0.05382216      -2.30066295       0.00000000
Si       0.70905483      -2.23218612       0.34672471       0.00000000
Si       1.08580995       2.15169723       0.72344387       0.00000000
Si       2.96517096       1.59071850      -0.75044574       0.00000000
Si      -2.06845533       2.52089379      -1.19055911       0.00000000
Si       0.89344134       1.65757266       3.03401324       0.00000000
Si      -2.88533367       0.61862904       2.18233626       0.00000000
Si       2.96841267      -2.18243646      -0.22853562       0.00000000
Si      -0.10078623      -2.14099470      -3.02789052       0.00000000
