10
Lattice="16.28999089631971 0.0 0.0 0.0 16.28999089631971 0.0 0.0 0.0 34.397273925272025" Properties=species:S:1:pos:R:3:initial_magmoms:R:1 pbc="T T T"
Si       0.59870637       1.97680779      -1.10353396       0.00000000
Si      -1.46530179      -1.24854705      -1.39745883       0.00000000
Si       1.68896349      -1.61774361       0.51654415       0.00000000
Si      -1.12518288       1.31597136       1.68416027       0.00000000
Si      -1.64154330       2.92969134      -1.27521085       0.00000000
Si       3.39626952       0.12867471       1.19623466       0.00000000
Si      -3.04834770       2.06265609       0.55083825       0.00000000
Si      -1.67918949      -3.31815897      -0.30689265       0.00000000
Si       0.60315354      -3.76944084      -0.20689972       0.00000000
Si      -0.24961167      -1.87276356      -3.33461119       0.00000000
