10
Lattice="16.28999089631971 0.0 0.0 0.0 16.28999089631971 0.0 0.0 0.0 34.397273925272025" Properties=species:S:1:pos:R:3:initial_magmoms:R:1 pbc="T T T"
Si      -1.36300059       1.39406562      -1.29089601       0.00000000
Si       0.86076360      -1.71079209      -1.43632777       0.00000000
Si      -1.24923123      -1.22277627       1.65095110       0.00000000
Si       1.37790594       1.45767807       1.52681814       0.00000000
Si       0.73101375       2.00181294      -2.48809380       0.00000000
Si       2.64803724      -2.57061087      -0.06559564       0.00000000
Si      -2.61669528      -2.62739781       0.21601500       0.00000000
Si      -0.82878633      -3.42407655      -1.19413643       0.00000000
Si      -2.44957617       2.85832485       0.28350249       0.00000000
Si       0.09933642      -2.59561602       3.03195426       0.00000000
