10
Lattice="16.28999089631971 0.0 0.0 0.0 16.28999089631971 0.0 0.0 0.0 34.397273925272025" Properties=species:S:1:pos:R:3:initial_magmoms:R:1 pbc="T T T"
Si       1.35568638       1.35874890       1.37845432       0.00000000
Si      -1.35728280      -1.35682668       1.38175646       0.00000000
Si       1.49980401      -1.29968136      -1.34190720       0.00000000
Si      -1.42035768       1.38517128      -1.43447376       0.00000000
Si      -2.70032814      -2.71534752       0.00014447       0.00000000
Si      -2.72295495       2.71578735       0.01432991       0.00000000
Si       0.18264348      -2.69819415      -2.73840088       0.00000000
Si       2.71829601       2.73031803       0.01676524       0.00000000
Si      -2.71204065       0.00140094       2.73993358       0.00000000
Si       0.00154755      -2.71360449       2.73996798       0.00000000
