10
Lattice="16.28999089631971 0.0 0.0 0.0 16.28999089631971 0.0 0.0 0.0 34.397273925272025" Properties=species:S:1:pos:R:3:initial_magmoms:R:1 pbc="T T T"
Si      -1.41231042       1.22776101       1.36698283       0.00000000
Si       1.34675946       1.36909305      -1.34269834       0.00000000
Si      -1.36603053      -1.34467434      -1.34978418       0.00000000
Si       1.38855960      -1.28096415       1.42415113       0.00000000
Si       0.43541541       2.20258719       2.49046722       0.00000000
Si      -2.18931084      -0.77323743       2.49246226       0.00000000
Si       2.27170566       0.50474565       2.69874283       0.00000000
Si      -0.26964837      -2.31596559       2.73107628       0.00000000
Si      -0.01132155      -2.70040959      -2.70465916       0.00000000
Si       2.70472644       0.01472616      -2.70386802       0.00000000
