10
Lattice="16.28999089631971 0.0 0.0 0.0 16.28999089631971 0.0 0.0 0.0 34.397273925272025" Properties=species:S:1:pos:R:3:initial_magmoms:R:1 pbc="T T T"
Si      -1.24549593       1.29122685      -1.47296089       0.00000000
Si       1.33530759       1.37119446       1.34498232       0.00000000
Si      -1.37500632      -1.34713413       1.34226493       0.00000000
Si       1.47351195      -1.23564537      -1.39589031       0.00000000
Si      -0.41365197      -2.15177868      -2.40648278       0.00000000
Si       0.61620183       2.11838418      -2.71808607       0.00000000
Si      -2.22652697      -0.58826448      -2.72763797       0.00000000
Si       2.69407278       0.01223379       2.70154277       0.00000000
Si       2.31575382       0.36909882      -3.01354827       0.00000000
Si      -0.02044395      -2.70293454       2.70302185       0.00000000
