10
Lattice="16.28999089631971 0.0 0.0 0.0 16.28999089631971 0.0 0.0 0.0 34.397273925272025" Properties=species:S:1:pos:R:3:initial_magmoms:R:1 pbc="T T T"
Si      -0.59870637      -1.97680779       1.10353396       0.00000000
Si       1.28485746      -0.42766137      -1.95091128       0.00000000
Si       1.18791567       1.55515743       1.41386634       0.00000000
Si      -2.24024967       0.95288355      -0.17167689       0.00000000
Si      -1.72388925      -0.66083643       2.78769423       0.00000000
Si       0.88870095       1.61614719      -3.11574121       0.00000000
Si      -1.87216083       3.28354272       0.26781732       0.00000000
Si       2.48878620       2.88471465      -0.09662200       0.00000000
Si      -2.06400816      -3.22535484      -0.29392487       0.00000000
Si      -0.34973001       3.16776969       2.15413048       0.00000000
