10
Lattice="16.28999089631971 0.0 0.0 0.0 16.28999089631971 0.0 0.0 0.0 34.397273925272025" Properties=species:S:1:pos:R:3:initial_magmoms:R:1 pbc="T T T"
Si       1.31716053       1.39851279       1.39649368       0.00000000
Si      -1.47839895      -1.38797316       1.28016547       0.00000000
Si       1.08657558      -1.46425923      -1.57439850       0.00000000
Si      -1.05503814       1.29241602      -1.77699856       0.00000000
Si      -0.40920480       0.17790309      -3.68071675       0.00000000
Si       2.54966193      -0.03318273       2.75926628       0.00000000
Si       2.44957617      -2.85832485      -0.28350249       0.00000000
Si      -0.18264348       2.69819415       2.73840088       0.00000000
Si      -0.17736552      -2.73556341       2.74818347       0.00000000
Si       2.62938519       2.94285366       0.05550967       0.00000000
