10
Lattice="16.28999089631971 0.0 0.0 0.0 16.28999089631971 0.0 0.0 0.0 34.397273925272025" Properties=species:S:1:pos:R:3:initial_magmoms:R:1 pbc="T T T"
Si      -1.35618031      -1.35766887       1.35738598       0.00000000
Si      -1.35727174       1.35664749      -1.35779875       0.00000000
Si       1.35704367      -1.35761837      -1.35755797       0.00000000
Si       1.35950346       1.35935163       1.35766116       0.00000000
Si      -0.00357138       2.71546155       2.71050670       0.00000000
Si       0.00095361       2.71425609      -2.71477196       0.00000000
Si      -2.71452196       2.71461447      -0.00055036       0.00000000
Si       2.71495852       0.00006516      -2.71435920       0.00000000
Si      -2.71491292      -0.00159642      -2.71501275       0.00000000
Si       0.00128168      -2.71514294      -2.71508154       0.00000000
