10
Lattice="16.28999089631971 0.0 0.0 0.0 16.28999089631971 0.0 0.0 0.0 34.397273925272025" Properties=species:S:1:pos:R:3:initial_magmoms:R:1 pbc="T T T"
Si       1.24549593      -1.29122685       1.47296089       0.00000000
Si       1.86169776       0.82715733      -1.24512519       0.00000000
Si      -0.98103104      -1.87949133      -1.25467708       0.00000000
Si      -1.47431378       1.43022942       1.43080700       0.00000000
Si      -1.26788328       0.46643157      -3.28071204       0.00000000
Si       0.73548861       1.67343912      -3.10776245       0.00000000
Si       0.83184396      -3.44300553      -0.93352190       0.00000000
Si       2.71900788      -2.52687222       0.07707058       0.00000000
Si       2.55281730       2.72339478      -0.03420467       0.00000000
Si       2.58080352       0.07996761       2.81794321       0.00000000
