10
Lattice="16.28999089631971 0.0 0.0 0.0 16.28999089631971 0.0 0.0 0.0 34.397273925272025" Properties=species:S:1:pos:R:3:initial_magmoms:R:1 pbc="T T T"
Si      -1.35731538       1.35881406      -1.36030975       0.00000000
Si       1.36107837      -1.35739683      -1.36051614       0.00000000
Si      -1.36176255      -1.35967743       1.38524779       0.00000000
Si       1.35785295       1.38201102       1.37358711       0.00000000
Si      -2.71063971       2.71158979      -0.00065355       0.00000000
Si      -2.71751409      -2.70780525       0.00051596       0.00000000
Si      -2.71423980       0.00091224      -2.71683580       0.00000000
Si       2.71849149       2.71270555      -0.00357732       0.00000000
Si       2.71554300      -2.71577106       0.00144469       0.00000000
Si       0.00109143      -2.71406061      -2.71742056       0.00000000
