10
Lattice="16.28999089631971 0.0 0.0 0.0 16.28999089631971 0.0 0.0 0.0 34.397273925272025" Properties=species:S:1:pos:R:3:initial_magmoms:R:1 pbc="T T T"
Si       1.30536657      -1.42847010      -1.37324313       0.00000000
Si      -1.43628930       1.30305339      -1.37152327       0.00000000
Si       1.44844164       1.25858169       1.45280407       0.00000000
Si      -0.98994330      -1.96123455       1.08949986       0.00000000
Si      -0.07565076       2.63374792      -2.74868770       0.00000000
Si       2.63596635      -0.07900650      -2.74724301       0.00000000
Si       2.67936291       2.81539160       0.16713645       0.00000000
Si       2.75863005      -2.74041783       0.12637566       0.00000000
Si      -0.07859925      -2.79472869      -2.74366569       0.00000000
Si      -2.53135197       2.98909187       0.04966969       0.00000000
