10
Lattice="16.28999089631971 0.0 0.0 0.0 16.28999089631971 0.0 0.0 0.0 34.397273925272025" Properties=species:S:1:pos:R:3:initial_magmoms:R:1 pbc="T T T"
Si       1.32095610      -0.80094672       1.80217738       0.00000000
Si       1.28661678       1.56963924      -1.26148633       0.00000000
Si      -0.27912915      -2.06951418      -1.21694183       0.00000000
Si      -2.05817634       1.10882772       0.61564275       0.00000000
Si       0.91781118       1.00540251      -3.47966457       0.00000000
Si      -3.03999093      -0.40211865       2.16661670       0.00000000
Si       2.97465174      -2.19160773       0.86426639       0.00000000
Si       1.69627770      -2.30928669      -2.58705481       0.00000000
Si       2.88372096       0.84760128       2.44826174       0.00000000
Si       3.41480754      -1.36940256      -1.26083278       0.00000000
