10
Lattice="16.28999089631971 0.0 0.0 0.0 16.28999089631971 0.0 0.0 0.0 34.397273925272025" Properties=species:S:1:pos:R:3:initial_magmoms:R:1 pbc="T T T"
Si       0.91984743      -1.29935556       1.80871287       0.00000000
Si      -0.95338854      -1.45875321      -1.68777198       0.00000000
Si       1.83557349       1.63655956      -0.08217513       0.00000000
Si      -1.98698904       0.96042582       1.12255566       0.00000000
Si       0.39325689       3.48093584      -0.27689821       0.00000000
Si      -1.87686864      -3.06455625      -0.26358646       0.00000000
Si      -1.51536096       3.27424832       1.04464579       0.00000000
Si       1.74187341       0.17343963       3.42813743       0.00000000
Si       3.13510824       1.23548247       1.87269183       0.00000000
Si       0.58425714      -3.07136547      -2.42803613       0.00000000
