10
Lattice="16.28999089631971 0.0 0.0 0.0 16.28999089631971 0.0 0.0 0.0 34.397273925272025" Properties=species:S:1:pos:R:3:initial_magmoms:R:1 pbc="T T T"
Si       1.35845568       1.35557567       1.37318466       0.00000000
Si      -1.35824391      -1.36182180       1.37005451       0.00000000
Si       1.44573750      -1.26336504      -1.39888976       0.00000000
Si      -1.32616890       1.33659782      -1.45105669       0.00000000
Si      -2.69938332       2.70237749      -0.00134149       0.00000000
Si       2.69219733       2.71109264       0.00903273       0.00000000
Si      -2.71264338      -2.70516036       0.00537286       0.00000000
Si       0.00086337       2.70936590       2.72802524       0.00000000
Si       2.73269637      -2.70654501       0.00216359       0.00000000
Si      -2.71314837      -0.00280486       2.72836921       0.00000000
