10
Lattice="16.28999089631971 0.0 0.0 0.0 16.28999089631971 0.0 0.0 0.0 34.397273925272025" Properties=species:S:1:pos:R:3:initial_magmoms:R:1 pbc="T T T"
Si      -1.35648459      -1.35605064       1.35597569       0.00000000
Si       1.35798327      -1.35673482      -1.35711080       0.00000000
Si      -1.35739683       1.35843580      -1.35735158       0.00000000
Si       1.35883035       1.35826639       1.35786754       0.00000000
Si      -2.71226871      -0.00251754       2.71411842       0.00000000
Si      -2.71391400       0.00216808      -2.71418721       0.00000000
Si      -2.71435383      -2.71413165      -0.00006879       0.00000000
Si       0.00009774       2.71433884      -2.71453118       0.00000000
Si       0.00127062      -2.71341489      -2.71566629       0.00000000
Si       2.71467278      -2.71523937      -0.00034397       0.00000000
