10
Lattice="16.28999089631971 0.0 0.0 0.0 16.28999089631971 0.0 0.0 0.0 34.397273925272025" Properties=species:S:1:pos:R:3:initial_magmoms:R:1 pbc="T T T"
Si       1.35759231      -1.35379022      -1.35484058       0.00000000
Si      -1.35749457      -1.35590304       1.35717960       0.00000000
Si       1.35764118       1.35824391       1.35721400       0.00000000
Si      -1.35589815       1.35645201      -1.36075692       0.00000000
Si       2.69133396       0.00172674      -2.71899251       0.00000000
Si      -2.71401174      -2.71217076       0.00034397       0.00000000
Si      -0.00009774      -2.71433884       2.71453118       0.00000000
Si      -2.70024669      -0.00698841      -2.72936674       0.00000000
Si      -2.71508688       0.00117288       2.71463438       0.00000000
Si       2.71619460      -2.71354652      -0.00006879       0.00000000
