10
Lattice="16.28999089631971 0.0 0.0 0.0 16.28999089631971 0.0 0.0 0.0 34.397273925272025" Properties=species:S:1:pos:R:3:initial_magmoms:R:1 pbc="T T T"
Si       1.93481217       0.59085459      -1.26922572       0.00000000
Si      -1.73224602       1.67762565      -0.12458700       0.00000000
Si      -0.72177732      -2.02880547      -1.10594177       0.00000000
Si       0.94727979       1.15154010       1.91644519       0.00000000
Si       0.59370534       1.88846712      -2.65801643       0.00000000
Si      -2.13796476      -0.85330278      -2.63803160       0.00000000
Si       2.85200826       2.12014350       0.33344736       0.00000000
Si      -0.55628721       3.47560182      -1.16610264       0.00000000
Si      -3.54586059       0.50896476      -1.17294770       0.00000000
Si      -1.95269859      -3.58561538       0.17972586       0.00000000
