10
Lattice="16.28999089631971 0.0 0.0 0.0 16.28999089631971 0.0 0.0 0.0 34.397273925272025" Properties=species:S:1:pos:R:3:initial_magmoms:R:1 pbc="T T T"
Si      -2.17914588       0.71182413      -0.38724473       0.00000000
Si       0.53326944      -1.27096209      -1.91723633       0.00000000
Si       0.71570475      -1.57009536       1.62186677       0.00000000
Si       0.92666058       2.15992368       0.40533770       0.00000000
Si       2.93603534      -0.73577043       1.65113887       0.00000000
Si      -1.76065578       1.64872719      -2.66885158       0.00000000
Si       2.83889807       1.65226212       1.59992130       0.00000000
Si      -0.47798118       2.92270293       2.17872455       0.00000000
Si      -2.61386082       2.19406752       1.40578297       0.00000000
Si      -0.50297004      -3.34902705      -1.51612949       0.00000000
