10
Lattice="16.28999089631971 0.0 0.0 0.0 16.28999089631971 0.0 0.0 0.0 34.397273925272025" Properties=species:S:1:pos:R:3:initial_magmoms:R:1 pbc="T T T"
Si       1.27663983       0.46658795       1.91596363       0.00000000
Si      -2.15588376       0.94080614      -0.05066721       0.00000000
Si       0.91183635       0.36774023      -2.15141310       0.00000000
Si      -0.05157414      -2.33756354       0.39020289       0.00000000
Si      -2.65500936       0.65970590       2.20417854       0.00000000
Si       0.68799186       2.71871303       2.14814535       0.00000000
Si      -0.86928327      -3.03163157      -1.65956620       0.00000000
Si       0.58860657      -1.78564205      -3.11185432       0.00000000
Si       2.28237465      -2.90103464       0.63039919       0.00000000
Si       0.47019456      -0.90225097       3.79522534       0.00000000
