10
Lattice="16.28999089631971 0.0 0.0 0.0 16.28999089631971 0.0 0.0 0.0 34.397273925272025" Properties=species:S:1:pos:R:3:initial_magmoms:R:1 pbc="T T T"
Si      -1.44231660       1.84437628      -0.19472308       0.00000000
Si       1.34887716       0.21736040      -1.94571728       0.00000000
Si       1.29953475      -0.40107709       1.95486696       0.00000000
Si      -1.83557349      -1.63655956       0.08217513       0.00000000
Si      -0.91572606      -2.93591512       1.89088800       0.00000000
Si      -1.72573002       2.04847369      -2.51636838       0.00000000
Si       0.53362782       2.09822335      -3.09162871       0.00000000
Si      -0.09370008      -1.46311993       3.51031256       0.00000000
Si      -3.35093445       1.63768876       1.12682093       0.00000000
Si      -0.49682871       3.86994004       0.54650419       0.00000000
