10
Lattice="16.28999089631971 0.0 0.0 0.0 16.28999089631971 0.0 0.0 0.0 34.397273925272025" Properties=species:S:1:pos:R:3:initial_magmoms:R:1 pbc="T T T"
Si      -0.06120153       2.31006372      -0.20600539       0.00000000
Si       2.13477911      -0.11205565       1.06621290       0.00000000
Si      -0.08123823      -0.89480481      -2.23238433       0.00000000
Si      -1.16703189      -0.20050872       2.26795113       0.00000000
Si      -2.44053522      -1.83214837       1.22306455       0.00000000
Si       0.73416979      -3.11622391      -1.81985759       0.00000000
Si       3.68430020       0.27830976      -0.67191672       0.00000000
Si      -2.39119281      -1.21371089      -2.67751970       0.00000000
Si       1.81215891      -2.45581102       2.27283554       0.00000000
Si       0.88034159       3.41719728       1.65550732       0.00000000
