10
Lattice="16.28999089631971 0.0 0.0 0.0 16.28999089631971 0.0 0.0 0.0 34.397273925272025" Properties=species:S:1:pos:R:3:initial_magmoms:R:1 pbc="T T T"
Si      -1.35658233      -1.35663120       1.35676683       0.00000000
Si       1.35725022      -1.35796698      -1.35724839       0.00000000
Si      -1.35786924       1.35757602      -1.35752357       0.00000000
Si       1.35920502       1.35627282       1.35793634       0.00000000
Si       2.71095057       0.00084708       2.71105706       0.00000000
Si       2.71454052       2.71454931       0.00006879       0.00000000
Si       2.71452196      -2.71461447       0.00055036       0.00000000
Si      -2.71479366       0.00011403      -2.71480636       0.00000000
Si       2.71547557      -0.00035838      -2.71422161       0.00000000
Si      -2.71511946       2.71458189       0.00010319       0.00000000
