10
Lattice="16.28999089631971 0.0 0.0 0.0 16.28999089631971 0.0 0.0 0.0 34.397273925272025" Properties=species:S:1:pos:R:3:initial_magmoms:R:1 pbc="T T T"
Si      -1.71771534       0.54638289      -1.56459528       0.00000000
Si       1.40781438      -1.72191816      -1.07570655       0.00000000
Si       1.42330617       2.01831471      -0.38177556       0.00000000
Si      -0.41849010      -0.93690306       2.28160685       0.00000000
Si      -1.27171143      -1.19583261      -3.11673873       0.00000000
Si       1.76065578      -1.64872719       2.66885158       0.00000000
Si       1.88429688       1.63761741      -2.72385285       0.00000000
Si       2.29392522      -2.91968928       0.75161525       0.00000000
Si      -1.53264465       3.36745251       1.28160875       0.00000000
Si       3.25187726       1.99617660       1.13941034       0.00000000
