10
Lattice="16.28999089631971 0.0 0.0 0.0 16.28999089631971 0.0 0.0 0.0 34.397273925272025" Properties=species:S:1:pos:R:3:initial_magmoms:R:1 pbc="T T T"
Si       2.10290868       0.91261467       0.50374836       0.00000000
Si      -0.01018125      -2.34269748      -0.26719817       0.00000000
Si      -1.26840456       1.26695475      -1.53360332       0.00000000
Si      -2.37508200       0.33664914       1.89370858       0.00000000
Si      -3.16807920      -0.97358814       0.09727555       0.00000000
Si       0.00597843       1.01946078      -3.43897257       0.00000000
Si       3.51282025      -0.00260640      -1.16967995       0.00000000
Si      -2.97571059      -0.47946357      -2.21329383       0.00000000
Si      -2.12356440      -3.04188057       0.47285959       0.00000000
Si       2.63042353       0.20846313       2.68708214       0.00000000
