10
Lattice="16.28999089631971 0.0 0.0 0.0 16.28999089631971 0.0 0.0 0.0 34.397273925272025" Properties=species:S:1:pos:R:3:initial_magmoms:R:1 pbc="T T T"
Si      -1.35721764       1.35565380      -1.35700761       0.00000000
Si       1.35827649       1.35752715       1.35628527       0.00000000
Si       1.35710361      -1.35842310      -1.35687002       0.00000000
Si      -1.35764118      -1.35716877       1.35848670       0.00000000
Si       2.70902700       0.00679293       2.71549431       0.00000000
Si       2.71428182       2.71295289       0.00017199       0.00000000
Si      -2.71474479       2.71406061       0.00044716       0.00000000
Si      -0.00014661      -2.71487511      -2.71404962       0.00000000
Si      -0.00104256       2.71292031       2.71607906       0.00000000
Si       2.71572761      -0.00016290      -2.71353366       0.00000000
