10
Lattice="16.28999089631971 0.0 0.0 0.0 16.28999089631971 0.0 0.0 0.0 34.397273925272025" Properties=species:S:1:pos:R:3:initial_magmoms:R:1 pbc="T T T"
Si      -1.35469269       1.35466011      -1.35772996       0.00000000
Si       1.35725022       1.35645201       1.35717960       0.00000000
Si      -1.35762489      -1.35879777       1.35697321       0.00000000
Si       1.35850455      -1.35987291      -1.36106649       0.00000000
Si      -2.69964396      -0.01881495      -2.71851783       0.00000000
Si      -2.71459818       2.71305063      -0.00048156       0.00000000
Si       0.00755856       2.70646947      -2.72127649       0.00000000
Si       0.00014661       2.71487511       2.71404962       0.00000000
Si       2.71478487      -0.00182448       2.71456558       0.00000000
Si      -2.71487511      -0.00179190       2.71459998       0.00000000
