10
Lattice="16.28999089631971 0.0 0.0 0.0 16.28999089631971 0.0 0.0 0.0 34.397273925272025" Properties=species:S:1:pos:R:3:initial_magmoms:R:1 pbc="T T T"
Si      -1.35075051       1.35073422      -1.35920904       0.00000000
Si       1.35847753       1.34234487       1.37279597       0.00000000
Si       1.36394282      -1.36576989      -1.35559732       0.00000000
Si      -1.35795069      -1.36422234       1.37207363       0.00000000
Si       2.15862767      -0.54459099       2.65044903       0.00000000
Si       0.34469218      -2.48166747       2.69103783       0.00000000
Si      -2.71006956       2.70612738       0.00058475       0.00000000
Si       0.00525482       2.70615996      -2.71532232       0.00000000
Si      -2.70902700      -0.00679293      -2.71549431       0.00000000
Si       2.72455856       2.70464499       0.00354292       0.00000000
