10
Lattice="16.28999089631971 0.0 0.0 0.0 16.28999089631971 0.0 0.0 0.0 34.397273925272025" Properties=species:S:1:pos:R:3:initial_magmoms:R:1 pbc="T T T"
Si      -1.37138994      -1.21740057      -1.38997952       0.00000000
Si       1.25608932      -1.46815254       1.31101843       0.00000000
Si      -1.46512260       1.26825795       1.30967694       0.00000000
Si       1.70937486       1.11454551      -1.53732996       0.00000000
Si       0.30384108      -2.09054457      -2.87514388       0.00000000
Si      -0.16553898       2.56163508      -2.67412610       0.00000000
Si       2.60675838      -0.10722078       2.67215716       0.00000000
Si      -0.11072313       2.61159651       2.67435858       0.00000000
Si       2.69325828       2.71005327      -0.09458568       0.00000000
Si       2.66712912      -2.77171092      -0.13232295       0.00000000
