10
Lattice="16.28999089631971 0.0 0.0 0.0 16.28999089631971 0.0 0.0 0.0 34.397273925272025" Properties=species:S:1:pos:R:3:initial_magmoms:R:1 pbc="T T T"
Si       1.35721764      -1.35565380       1.35700761       0.00000000
Si      -1.35752715      -1.35747828      -1.35752357       0.00000000
Si      -1.35752715       1.35840681       1.35745478       0.00000000
Si       1.35809730       1.35912357      -1.35814272       0.00000000
Si      -2.71285515      -0.00008145       2.71470317       0.00000000
Si      -0.00042354      -2.71282257       2.71549431       0.00000000
Si       2.71432125      -2.71407690       0.00013759       0.00000000
Si       2.71549413       0.00187335       2.71329288       0.00000000
Si       0.00034209       2.71648782       2.71349926       0.00000000
Si      -2.71554300      -2.71459818       0.00020638       0.00000000
