10
Lattice="16.28999089631971 0.0 0.0 0.0 16.28999089631971 0.0 0.0 0.0 34.397273925272025" Properties=species:S:1:pos:R:3:initial_magmoms:R:1 pbc="T T T"
Si      -2.28970611       0.11020185       0.44228040       0.00000000
Si       0.14222799       1.63014030      -1.67869110       0.00000000
Si       1.86916414       0.09844047       1.43646536       0.00000000
Si       0.05890464      -2.39164893       0.00485002       0.00000000
Si      -0.33058926       3.50418313      -0.21037384       0.00000000
Si       2.55512627       1.36795275      -2.06070744       0.00000000
Si       3.33528695      -1.22590395       0.18856596       0.00000000
Si      -1.06898238      -0.46996650       3.45548328       0.00000000
Si       1.19128674      -1.08302436       3.29147698       0.00000000
Si      -3.29318640       0.14941188      -1.73303882       0.00000000
