10
Lattice="16.28999089631971 0.0 0.0 0.0 16.28999089631971 0.0 0.0 0.0 34.397273925272025" Properties=species:S:1:pos:R:3:initial_magmoms:R:1 pbc="T T T"
Si      -1.37762901      -1.79750376      -0.49229406       0.00000000
Si       2.11941438       0.10533114      -1.00244031       0.00000000
Si      -1.21033071       2.07945108      -0.23527749       0.00000000
Si      -0.72865170      -0.42968133       2.45696425       0.00000000
Si      -2.60356554       1.01740824       1.32016811       0.00000000
Si      -3.42559152      -0.45538695      -0.29925645       0.00000000
Si       3.04236342       1.45578843       0.81449350       0.00000000
Si       2.45438728      -2.26888749      -1.18467717       0.00000000
Si      -0.56185839      -2.41240239      -2.68470873       0.00000000
Si       1.51477332       2.49288723       2.31211725       0.00000000
