10
Lattice="16.28999089631971 0.0 0.0 0.0 16.28999089631971 0.0 0.0 0.0 34.397273925272025" Properties=species:S:1:pos:R:3:initial_magmoms:R:1 pbc="T T T"
Si       2.08495710       0.56891196      -0.78580616       0.00000000
Si       0.06206490       1.23808887       1.94158961       0.00000000
Si      -1.91223749       0.50766156      -1.19458359       0.00000000
Si       0.09713727      -2.38803255       0.05121757       0.00000000
Si       1.87235631      -0.54532404      -2.76567996       0.00000000
Si       3.23177310      -0.56250999       0.91476161       0.00000000
Si       2.05475544       0.35823339       2.77579276       0.00000000
Si      -2.10169947       0.91360836       2.73348409       0.00000000
Si      -3.31687925       1.27044081       0.57880325       0.00000000
Si       1.32411636      -2.70021411      -1.98830113       0.00000000
