10
Lattice="16.28999089631971 0.0 0.0 0.0 16.28999089631971 0.0 0.0 0.0 34.397273925272025" Properties=species:S:1:pos:R:3:initial_magmoms:R:1 pbc="T T T"
Si      -1.36772958      -1.34939844       1.37896684       0.00000000
Si       1.35553977       1.36213722       1.38202820       0.00000000
Si      -1.15101230       1.59311313      -1.38018107       0.00000000
Si       1.32115158      -1.42029252      -1.46912215       0.00000000
Si       2.43331875       0.20487933      -2.83481993       0.00000000
Si      -2.70597950      -2.71345788      -0.00411048       0.00000000
Si       2.69874801       2.72142369       0.01532399       0.00000000
Si       2.72137482      -2.70971118       0.00113855       0.00000000
Si      -2.70465218       2.73456972       0.01455006       0.00000000
Si      -0.00364896      -2.70743058       2.73986135       0.00000000
