10
Lattice="16.28999089631971 0.0 0.0 0.0 16.28999089631971 0.0 0.0 0.0 34.397273925272025" Properties=species:S:1:pos:R:3:initial_magmoms:R:1 pbc="T T T"
Si       1.35669161       1.35612621       1.35656045       0.00000000
Si      -1.35764660       1.35268902      -1.36065373       0.00000000
Si       1.35273477      -1.35718506      -1.36192642       0.00000000
Si      -1.35862400      -1.35826020       1.35666364       0.00000000
Si       2.71279176       2.71370223      -0.00068795       0.00000000
Si      -0.00144579       2.71311579       2.71370565       0.00000000
Si       2.71419270      -0.00114030       2.71387763       0.00000000
Si      -2.71572761       0.00016290       2.71353366       0.00000000
Si      -2.71484795       2.71494027      -0.00161667       0.00000000
Si      -2.70831566      -0.00824274      -2.72179245       0.00000000
