10
Lattice="16.28999089631971 0.0 0.0 0.0 16.28999089631971 0.0 0.0 0.0 34.397273925272025" Properties=species:S:1:pos:R:3:initial_magmoms:R:1 pbc="T T T"
Si      -0.90814144       0.23920236       2.15096593       0.00000000
Si      -0.80015014       1.88693586      -1.27765306       0.00000000
Si       1.90397520      -0.81987570      -1.27132395       0.00000000
Si      -1.81393548      -1.93707648       0.04058881       0.00000000
Si       0.07213212      -2.29881222       1.57494886       0.00000000
Si      -2.15862767       0.54459099      -2.65044903       0.00000000
Si       0.56865132      -2.18787732      -2.65385436       0.00000000
Si      -2.98172879       1.48563171       1.67146767       0.00000000
Si      -3.51657836      -0.81963135      -1.27837540       0.00000000
Si      -2.08265614       3.20719149       0.25099705       0.00000000
