10
Lattice="16.28999089631971 0.0 0.0 0.0 16.28999089631971 0.0 0.0 0.0 34.397273925272025" Properties=species:S:1:pos:R:3:initial_magmoms:R:1 pbc="T T T"
Si       1.24686918      -1.42772076       1.46023389       0.00000000
Si      -2.47293114      -0.05489730       0.27290812       0.00000000
Si       0.79734663       2.22190713       0.91634389       0.00000000
Si      -1.20119202       2.30231457      -0.35601198       0.00000000
Si      -1.54686582      -1.23681825      -2.41682261       0.00000000
Si       3.32843796      -1.20948363       0.34376655       0.00000000
Si      -2.87287671      -2.26365840      -0.76826354       0.00000000
Si       1.33540533      -0.51733782       3.61003031       0.00000000
Si      -2.86608703       0.15692157       2.63355996       0.00000000
Si       3.47899014      -0.20562867      -1.79712098       0.00000000
