10
Lattice="16.28999089631971 0.0 0.0 0.0 16.28999089631971 0.0 0.0 0.0 34.397273925272025" Properties=species:S:1:pos:R:3:initial_magmoms:R:1 pbc="T T T"
Si       0.67787740       1.18146483      -1.85501162       0.00000000
Si       0.86798821       0.82591929       1.99432066       0.00000000
Si       0.47910519      -2.28827259      -0.11333908       0.00000000
Si      -2.26026912       0.61305786       0.16400629       0.00000000
Si      -2.70042492      -0.20914731       2.28910546       0.00000000
Si      -0.69686895      -0.04404816       3.48045571       0.00000000
Si      -1.75366641      -3.11945355       0.08630281       0.00000000
Si       0.87226108      -2.50009146      -2.47399091       0.00000000
Si      -2.08432083       2.96676738       0.12799233       0.00000000
Si      -1.19128674       1.08302436      -3.29147698       0.00000000
