10
Lattice="16.28999089631971 0.0 0.0 0.0 16.28999089631971 0.0 0.0 0.0 34.397273925272025" Properties=species:S:1:pos:R:3:initial_magmoms:R:1 pbc="T T T"
Si       0.12680136       1.00901889       2.12176263       0.00000000
Si      -0.37926378      -2.33432442       0.29664226       0.00000000
Si      -1.78221560       0.84080835      -1.37248639       0.00000000
Si       2.41927677       0.16654896      -0.39601604       0.00000000
Si       0.70121934       3.07467234       1.21467161       0.00000000
Si       2.87743302      -1.27384542       1.43299123       0.00000000
Si       2.33074062      -0.74383398      -2.54581246       0.00000000
Si       1.90858527      -0.08566911       3.18401984       0.00000000
Si       1.61342676      -3.21417990       1.13084541       0.00000000
Si      -2.54302815      -2.65880493       1.08853674       0.00000000
