10
Lattice="16.28999089631971 0.0 0.0 0.0 16.28999089631971 0.0 0.0 0.0 34.397273925272025" Properties=species:S:1:pos:R:3:initial_magmoms:R:1 pbc="T T T"
Si      -2.09455191       0.88032789      -0.47949827       0.00000000
Si      -0.57441798      -2.06565345       0.90709102       0.00000000
Si       0.65423898       1.30026780       1.85900171       0.00000000
Si       1.43725041       0.40967721      -1.88228868       0.00000000
Si      -0.70121934      -3.07467234      -1.21467161       0.00000000
Si       1.89094320       2.69549001      -1.32873304       0.00000000
Si       2.43801027       2.53809603       1.03143723       0.00000000
Si      -1.89520303       3.15177291      -0.05586120       0.00000000
Si       3.27513708      -0.96739794      -1.46105942       0.00000000
Si       1.71805743      -2.90812338      -1.61068765       0.00000000
