10
Lattice="16.28999089631971 0.0 0.0 0.0 16.28999089631971 0.0 0.0 0.0 34.397273925272025" Properties=species:S:1:pos:R:3:initial_magmoms:R:1 pbc="T T T"
Si      -1.35669161      -1.35612621      -1.35656045       0.00000000
Si       1.35610015       1.35757602      -1.35724839       0.00000000
Si       1.35750109      -1.35726651       1.35731719       0.00000000
Si      -1.35813740       1.35698958       1.35714520       0.00000000
Si      -0.00245327       2.71324611      -2.71305210       0.00000000
Si      -2.71414273       0.00156384       2.71325848       0.00000000
Si      -2.71531561      -2.71438641       0.00010319       0.00000000
Si       2.71506082      -2.71485882       0.00017199       0.00000000
Si       2.71520743       2.71485882       0.00000000       0.00000000
Si      -2.71482691       2.71549413       0.00037837       0.00000000
