10
Lattice="16.28999089631971 0.0 0.0 0.0 16.28999089631971 0.0 0.0 0.0 34.397273925272025" Properties=species:S:1:pos:R:3:initial_magmoms:R:1 pbc="T T T"
Si      -0.87258037      -2.09614833      -0.50130615       0.00000000
Si      -2.17688876       0.93514374       0.02940969       0.00000000
Si       0.80936865       0.41355423      -2.19915654       0.00000000
Si       1.15386957       0.40682646       2.09108025       0.00000000
Si      -1.85365897       3.08852603       0.98985090       0.00000000
Si       0.21146049       2.68071565      -2.65897955       0.00000000
Si      -0.48312067      -0.18024885       3.77166319       0.00000000
Si       3.14493111       0.12105099      -2.22547047       0.00000000
Si      -1.55045776      -3.27761316       1.35370547       0.00000000
Si       0.59354244      -3.42049275      -1.74920555       0.00000000
