10
Lattice="16.290000149 0.0 0.0 0.0 16.290000149 0.0 0.0 0.0 29.1751946751" Properties=species:S:1:pos:R:3:initial_magmoms:R:1 pbc="T T T"
Si      -1.07603596      -1.16046703       1.71354671       0.00000000
Si       0.87562009      -1.77886802      -1.28688866       0.00000000
Si       1.87362695       1.45714051       0.16084285       0.00000000
Si      -1.59857029       1.30622995      -1.20980780       0.00000000
H        0.47776941       2.35750511       1.79652096       0.00000000
H       -1.19125513      -0.36357651       3.00069795       0.00000000
H        2.61092864       1.52379919       1.47848217       0.00000000
Si       1.99866899      -0.33492240      -2.83480779       0.00000000
Si      -3.28650753      -1.07864236       0.90326403       0.00000000
Si      -0.28398357       2.66263310      -2.59525027       0.00000000
