10
Lattice="16.290000149 0.0 0.0 0.0 16.290000149 0.0 0.0 0.0 29.1751946751" Properties=species:S:1:pos:R:3:initial_magmoms:R:1 pbc="T T T"
Si       1.14785857       0.13637988      -2.05924359       0.00000000
Si       1.56774961       0.76147606       1.59416181       0.00000000
Si      -0.91867456      -1.82729819       1.18191631       0.00000000
Si      -1.93456784       1.49343463      -0.31768869       0.00000000
Si      -1.95532130      -0.33109425       2.64070522       0.00000000
H        1.84943630      -2.82084159      -0.13286384       0.00000000
H       -2.86215303       0.47775312       1.73032245       0.00000000
Si      -0.04974966       0.96633910       3.26540449       0.00000000
Si       2.39026430       2.69408421       0.59211058       0.00000000
Si       2.67463883       1.98226496      -1.62342453       0.00000000
