10
Lattice="16.290000149 0.0 0.0 0.0 16.290000149 0.0 0.0 0.0 29.1751946751" Properties=species:S:1:pos:R:3:initial_magmoms:R:1 pbc="T T T"
Si       1.24136317       1.38100105      -1.41611646       0.00000000
Si      -0.79570135      -1.85577311      -1.19112109       0.00000000
Si       1.39092166      -1.26363160       1.40217444       0.00000000
Si      -1.42311070       1.37927431       1.29571124       0.00000000
Si      -2.66892104      -2.65942397       0.01169925       0.00000000
Si      -0.03670137      -2.65230524       2.68803906       0.00000000
Si       2.67429674      -2.70585047       0.05614183       0.00000000
Si      -0.07239276       2.74835109       2.65337893       0.00000000
Si       2.65577501       2.75393856      -0.08224779       0.00000000
Si      -0.19673433       2.79663465      -2.64078108       0.00000000
