10
Lattice="16.290000149 0.0 0.0 0.0 16.290000149 0.0 0.0 0.0 29.1751946751" Properties=species:S:1:pos:R:3:initial_magmoms:R:1 pbc="T T T"
Si       1.36282141      -1.33931494       1.36423210       0.00000000
Si       1.35415513       1.37191123      -1.34611431       0.00000000
Si      -1.35500221       1.35394336       1.36443633       0.00000000
Si      -1.33595920      -1.40382334      -1.33791608       0.00000000
Si       2.70578531      -2.67068036      -0.02211480       0.00000000
Si      -2.76856698      -0.07920198      -2.61648981       0.00000000
Si       0.01166364      -2.73171899       2.69056563       0.00000000
Si      -2.72318303       2.70498710       0.02424459       0.00000000
Si       0.00887805       2.71658558      -2.71291383       0.00000000
Si       2.71290404       2.71889876       0.02080191       0.00000000
