10
Lattice="16.290000149 0.0 0.0 0.0 16.290000149 0.0 0.0 0.0 29.1751946751" Properties=species:S:1:pos:R:3:initial_magmoms:R:1 pbc="T T T"
Si       1.36554184       1.35534430       1.34640606       0.00000000
Si       1.36932112      -1.36357075      -1.33660319       0.00000000
Si      -1.34827444      -1.34759026       1.37788609       0.00000000
Si      -1.34933329       1.36184401      -1.36303592       0.00000000
Si      -0.00933417       2.71948520       2.67863297       0.00000000
Si       2.72020196       0.01164735      -2.68373863       0.00000000
Si       2.71645526      -0.02119329       2.68811491       0.00000000
Si      -2.69610905      -2.70940169       0.02742468       0.00000000
Si       0.02347389      -2.72065808      -2.69972664       0.00000000
Si      -2.71288775       0.00832419      -2.71349733       0.00000000
