10
Lattice="16.290000149 0.0 0.0 0.0 16.290000149 0.0 0.0 0.0 29.1751946751" Properties=species:S:1:pos:R:3:initial_magmoms:R:1 pbc="T T T"
H        1.27811341       0.56024569       0.92030234       0.00000000
Si       1.20277216      -1.87116716      -0.65317426       0.00000000
Si      -1.08297550       1.30948795      -1.60556931       0.00000000
Si      -1.77725531      -0.57015001       1.44886934       0.00000000
H        0.90991054       1.25439517      -2.65333808       0.00000000
Si      -2.14852070       2.38987334       0.28051950       0.00000000
Si      -1.81239284      -0.73635688      -2.63049390       0.00000000
Si       2.42678648       1.08618463       2.01300091       0.00000000
Si      -0.33381468      -2.60542262      -2.25308358       0.00000000
Si      -2.89066053      -2.33851097       0.39584904       0.00000000
