10
Lattice="16.290000149 0.0 0.0 0.0 16.290000149 0.0 0.0 0.0 29.1751946751" Properties=species:S:1:pos:R:3:initial_magmoms:R:1 pbc="T T T"
Si      -1.39530367       1.28285380      -1.35965160       0.00000000
Si       1.43920522      -1.37064061      -1.23113486       0.00000000
Si      -1.37344249      -1.31968549       1.35793026       0.00000000
Si       0.87710248       1.88920019       1.06865821       0.00000000
Si      -2.43180380       0.14455746       2.83714181       0.00000000
Si       0.05553261      -2.71956665      -2.57182259       0.00000000
Si      -2.57844638       2.73414621       0.05196102       0.00000000
Si      -0.01190799       2.61861752      -2.70025179       0.00000000
Si       2.78016546      -0.03719007      -2.60356520       0.00000000
Si      -2.74642887      -0.05960511      -2.67090155       0.00000000
