10
Lattice="16.290000149 0.0 0.0 0.0 16.290000149 0.0 0.0 0.0 29.1751946751" Properties=species:S:1:pos:R:3:initial_magmoms:R:1 pbc="T T T"
Si       1.37411038       1.34371324      -1.34191308       0.00000000
Si       1.36213723      -1.39448917       1.30477306       0.00000000
Si      -1.35516511      -1.35334063      -1.35973912       0.00000000
Si      -1.35221662       1.36967950       1.35043224       0.00000000
Si       0.00592956       2.69475698      -2.68210482       0.00000000
Si      -2.74072737       0.00983916       2.66357857       0.00000000
Si       2.78342346      -0.08596233       2.61829867       0.00000000
Si       0.01396053      -2.75318922       2.65777271       0.00000000
Si       0.01329264      -2.73302220      -2.68222152       0.00000000
Si       0.02531466       2.73491184       2.68651028       0.00000000
