10
Lattice="16.290000149 0.0 0.0 0.0 16.290000149 0.0 0.0 0.0 29.1751946751" Properties=species:S:1:pos:R:3:initial_magmoms:R:1 pbc="T T T"
Si      -1.43344345       1.21482676      -1.38089114       0.00000000
Si       1.13963212      -1.42840495      -1.46415714       0.00000000
Si      -1.48447676      -1.19031031       1.38929360       0.00000000
Si       1.50174253       1.34017831       1.30421873       0.00000000
H        0.02663415      -2.67382433       0.76395247       0.00000000
H       -2.60539167      -0.19707642       1.65939755       0.00000000
H        2.04234248      -2.33088725      -0.65623765       0.00000000
Si      -0.18619470      -1.04469400       3.41729055       0.00000000
Si      -0.06612111       2.64254753      -2.68020843       0.00000000
Si      -2.86818033       2.46159821      -0.01213688       0.00000000
