10
Lattice="16.290000149 0.0 0.0 0.0 16.290000149 0.0 0.0 0.0 29.1751946751" Properties=species:S:1:pos:R:3:initial_magmoms:R:1 pbc="T T T"
Si      -1.32950836       1.31466817       1.41859424       0.00000000
Si      -1.43062039      -1.35610993      -1.27851976       0.00000000
Si       1.32895450      -1.39383757       1.37122248       0.00000000
Si       1.33631758       1.36286702      -1.40966372       0.00000000
Si       0.01560582      -2.54677862      -2.63572210       0.00000000
Si       2.63438624       2.64822786       0.09479604       0.00000000
Si      -2.60453645       2.68883557       0.02874048       0.00000000
Si      -2.74108900      -0.07745895       2.67401746       0.00000000
Si       2.66851379      -0.06972120       2.77388415       0.00000000
Si       2.71169858      -2.74989864       0.04854169       0.00000000
