10
Lattice="16.290000149 0.0 0.0 0.0 16.290000149 0.0 0.0 0.0 29.1751946751" Properties=species:S:1:pos:R:3:initial_magmoms:R:1 pbc="T T T"
H       -0.98104897      -0.05396877       1.16126027       0.00000000
Si      -0.87052132       1.41830515      -1.60072623       0.00000000
Si       0.35300430      -2.12568212      -0.91198741       0.00000000
Si       1.89563474       1.32405121       0.40317202       0.00000000
H        0.96804955       0.30836970       2.45118316       0.00000000
H       -2.17359101      -1.83769121       0.81638030       0.00000000
Si       0.30219579       2.85683434       1.48630112       0.00000000
Si      -0.31576536       0.38068101      -3.60500375       0.00000000
Si      -1.70557931      -2.81805600      -1.82056132       0.00000000
Si       1.56625093      -3.44642646       0.61682197       0.00000000
