10
Lattice="16.290000149 0.0 0.0 0.0 16.290000149 0.0 0.0 0.0 29.1751946751" Properties=species:S:1:pos:R:3:initial_magmoms:R:1 pbc="T T T"
Si       1.41158064       1.39212712      -1.25542321       0.00000000
Si       1.36582203      -1.34729704       1.37321806       0.00000000
Si      -1.28132352       1.34480467       1.45607562       0.00000000
Si      -1.39256369      -1.28629099      -1.43333939       0.00000000
Si      -2.69336908      -2.64101627       0.00175051       0.00000000
Si      -2.59825177       2.77849736       0.17802704       0.00000000
Si       0.13655256       2.76629452      -2.64527697       0.00000000
Si       2.74108900       0.07745895      -2.67401746       0.00000000
Si       2.71781059      -2.71653671       0.01619223       0.00000000
Si       2.71307020       2.71589489       0.17251293       0.00000000
