10
Lattice="16.290000149 0.0 0.0 0.0 16.290000149 0.0 0.0 0.0 29.1751946751" Properties=species:S:1:pos:R:3:initial_magmoms:R:1 pbc="T T T"
Si      -1.32763501      -1.34234000       1.33407370       0.00000000
Si       1.49713246      -1.24345481      -1.27528277       0.00000000
Si      -1.24628275       1.36796905      -1.42975376       0.00000000
Si       1.42296409       1.42060204       1.24322215       0.00000000
H       -0.54068139      -0.49412457      -3.27315634       0.00000000
Si       0.67175074       2.15506928      -2.53581456       0.00000000
Si       2.37022760       0.48159756      -2.65742377       0.00000000
Si      -2.65904930       0.07297920       2.62303380       0.00000000
Si       0.10471212      -2.69130350       2.59654273       0.00000000
Si      -2.68902290      -2.62791481      -0.07258497       0.00000000
