10
Lattice="16.290000149 0.0 0.0 0.0 16.290000149 0.0 0.0 0.0 29.1751946751" Properties=species:S:1:pos:R:3:initial_magmoms:R:1 pbc="T T T"
Si       1.32763501       1.34234000      -1.33407370       0.00000000
Si      -1.33141429       1.41531920       1.28896010       0.00000000
Si       1.43234713      -1.34896351       1.26246902       0.00000000
Si      -1.36138789      -1.28557482      -1.40665867       0.00000000
Si       0.05486472      -2.69202515       2.60120201       0.00000000
Si      -2.67897197       0.04154765       2.62725546       0.00000000
Si       0.05470182       2.76375654       2.61459342       0.00000000
Si       2.78018175       0.03524993       2.60400283       0.00000000
Si      -0.03911229      -2.77472948      -2.61274080       0.00000000
Si      -2.71134020      -2.67984023      -0.09388578       0.00000000
