10
Lattice="16.290000149 0.0 0.0 0.0 16.290000149 0.0 0.0 0.0 29.1751946751" Properties=species:S:1:pos:R:3:initial_magmoms:R:1 pbc="T T T"
Si      -1.32598972       1.35894439       1.36726632       0.00000000
Si       1.41366250       1.40367673      -1.25392944       0.00000000
Si       1.37801998      -1.34034121       1.35854294       0.00000000
Si      -1.42296409      -1.42060204      -1.24322215       0.00000000
Si       0.07416837      -2.66405685      -2.51850492       0.00000000
Si       2.66957264       0.00351864      -2.62190181       0.00000000
Si      -2.66924684      -0.05263299      -2.67297590       0.00000000
Si       0.09863595       2.66693366      -2.72430382       0.00000000
Si      -2.64412766       2.74882350       0.02500314       0.00000000
Si       0.05188365       2.72235224       2.67349814       0.00000000
