10
Lattice="16.290000149 0.0 0.0 0.0 16.290000149 0.0 0.0 0.0 29.1751946751" Properties=species:S:1:pos:R:3:initial_magmoms:R:1 pbc="T T T"
H        1.28052433       0.03934035       0.82621234       0.00000000
Si      -1.36674893      -1.38561112       1.33599051       0.00000000
Si       0.61188499      -1.52643166      -1.74914045       0.00000000
Si      -0.79006501       2.26655804       0.21114088       0.00000000
Si       0.53462151       1.99555760      -1.69114016       0.00000000
Si       0.47687346      -2.56459988       2.27053035       0.00000000
Si       2.74509309       1.91373293      -0.88085748       0.00000000
H       -3.04336299       1.03767301      -1.56338198       0.00000000
Si       2.68423364      -2.24338389      -0.90326403       0.00000000
Si       3.61387137      -0.16467561      -0.09359402       0.00000000
