10
Lattice="16.290000149 0.0 0.0 0.0 16.290000149 0.0 0.0 0.0 29.1751946751" Properties=species:S:1:pos:R:3:initial_magmoms:R:1 pbc="T T T"
Si      -1.37060803       1.34578207       1.33849958       0.00000000
Si      -1.38611611      -1.34843734      -1.32563332       0.00000000
Si       1.36324495      -1.36576990       1.33511526       0.00000000
Si       1.36990756       1.35812989      -1.33817865       0.00000000
Si       0.00801468       2.68086161       2.68283420       0.00000000
Si      -0.05470182      -2.76375654      -2.61459342       0.00000000
Si      -0.00043983      -2.71283726       2.68610182       0.00000000
Si       2.69589728      -0.00081450      -2.70544498       0.00000000
Si      -2.72010422      -0.01904301       2.69491273       0.00000000
Si      -2.71705799       2.70456356      -0.03016715       0.00000000
