10
Lattice="16.290000149 0.0 0.0 0.0 16.290000149 0.0 0.0 0.0 29.1751946751" Properties=species:S:1:pos:R:3:initial_magmoms:R:1 pbc="T T T"
H        0.73730170       0.06665868       1.31763932       0.00000000
H       -1.39585753       0.90036460       1.63567811       0.00000000
Si       1.61142310      -0.77975344      -1.52306186       0.00000000
Si      -1.87362695      -1.45714051      -0.16084285       0.00000000
Si      -0.34404480       1.95365972      -1.37041724       0.00000000
H        1.83800072       1.77375296       0.24078288       0.00000000
H        2.47638953       1.33152832       0.23967422       0.00000000
Si      -0.79943176       0.96731650       3.03769209       0.00000000
Si       0.12504204      -1.79206292      -2.99565064       0.00000000
Si      -0.99800686      -3.23600853      -1.44773151       0.00000000
