10
Lattice="16.290000149 0.0 0.0 0.0 16.290000149 0.0 0.0 0.0 29.1751946751" Properties=species:S:1:pos:R:3:initial_magmoms:R:1 pbc="T T T"
Si      -1.43234713       1.34896351      -1.26246902       0.00000000
Si      -1.37748241      -1.34306164       1.33873298       0.00000000
Si       1.34783461       1.38421344       1.34153380       0.00000000
Si       1.35457867      -1.33146316      -1.39842543       0.00000000
Si      -0.10471212       2.69130350      -2.59654273       0.00000000
Si      -0.00930159      -2.69410538       2.67892473       0.00000000
Si       2.69985575      -2.67613751      -0.03162591       0.00000000
Si       2.70774011       0.03143970       2.69476686       0.00000000
Si      -2.72898227       0.03148857       2.68735636       0.00000000
Si      -0.06636546      -2.79226893      -2.62271871       0.00000000
