10
Lattice="16.290000149 0.0 0.0 0.0 16.290000149 0.0 0.0 0.0 29.1751946751" Properties=species:S:1:pos:R:3:initial_magmoms:R:1 pbc="T T T"
Si      -1.30163617       1.42809544       1.30191535       0.00000000
Si       1.28321218       1.47084040      -1.32011921       0.00000000
Si       1.43809750      -1.41563359       1.22466461       0.00000000
Si      -1.36627489      -1.03692367      -1.63401513       0.00000000
Si       0.35575731      -1.45357300      -3.16127822       0.00000000
Si      -0.40490424       2.40010346      -2.63790440       0.00000000
Si       2.26269731       0.00403992      -2.81674835       0.00000000
Si      -2.20840274       0.81099766      -2.76189898       0.00000000
Si      -2.59630022      -0.06406857       2.57194220       0.00000000
Si       2.39883284      -2.72513783      -0.53186380       0.00000000
