10
Lattice="16.290000149 0.0 0.0 0.0 16.290000149 0.0 0.0 0.0 29.1751946751" Properties=species:S:1:pos:R:3:initial_magmoms:R:1 pbc="T T T"
Si       1.31605282       1.34074846       1.39833791       0.00000000
Si      -1.36210954       1.33871221      -1.37760893       0.00000000
Si       1.42275232      -1.38132685      -1.28334096       0.00000000
Si      -1.37449808      -1.36161595       1.35988500       0.00000000
Si       0.03745071      -2.65297313      -2.66748805       0.00000000
Si       2.66856266       2.65737143       0.00067103       0.00000000
Si       0.11857491       2.54570348      -2.81076743       0.00000000
Si       2.62337420      -2.78026320       0.15691003       0.00000000
Si       2.67641444      -0.02682963       2.74623190       0.00000000
Si      -2.86280463      -0.04564458      -2.55179877       0.00000000
