10
Lattice="16.290000149 0.0 0.0 0.0 16.290000149 0.0 0.0 0.0 29.1751946751" Properties=species:S:1:pos:R:3:initial_magmoms:R:1 pbc="T T T"
Si       1.42763932       1.38846187       1.17818189       0.00000000
Si      -1.31958775       1.44159985      -1.27510188       0.00000000
Si       1.43510014      -1.32142852      -1.28090775       0.00000000
Si      -1.38339568      -1.33576372       1.34060020       0.00000000
Si       0.05698242      -2.66075975      -2.61284291       0.00000000
Si      -2.66880701       0.07991874      -2.62232485       0.00000000
Si       0.01190799      -2.61861752       2.70025179       0.00000000
Si      -2.56653839       0.11552868       2.75221281       0.00000000
Si       2.72192870       0.09552456       2.60633684       0.00000000
Si       0.06892299       2.80144020      -2.58824822       0.00000000
