10
Lattice="16.290000149 0.0 0.0 0.0 16.290000149 0.0 0.0 0.0 29.1751946751" Properties=species:S:1:pos:R:3:initial_magmoms:R:1 pbc="T T T"
H        1.31605282      -0.45900333       0.59520315       0.00000000
Si      -1.25397163       0.24177618       1.94344724       0.00000000
Si       0.27334620       2.02466783      -1.20260152       0.00000000
Si      -0.97070482      -1.99687709      -0.87688965       0.00000000
H        1.89240932      -0.57575377      -1.72918461       0.00000000
Si       3.07424883      -1.09002907      -0.92642913       0.00000000
H       -0.91023634      -2.76804570       1.74088387       0.00000000
Si      -1.92274130       2.74813932      -0.74956910       0.00000000
Si      -3.31255524      -0.45059769       1.03487333       0.00000000
H        1.08199810       0.16803135      -3.37956703       0.00000000
