10
Lattice="16.290000149 0.0 0.0 0.0 16.290000149 0.0 0.0 0.0 29.1751946751" Properties=species:S:1:pos:R:3:initial_magmoms:R:1 pbc="T T T"
Si      -1.19602810      -1.13929182      -1.69043995       0.00000000
Si       0.56306386      -1.72892125       1.53694926       0.00000000
Si      -1.98966062       0.88883291       0.97669799       0.00000000
Si       1.43361140       1.44498980      -1.33610722       0.00000000
H        0.46884249       2.34527295       1.95435877       0.00000000
Si      -2.48604950      -2.57776057      -0.40819015       0.00000000
Si      -2.72463284       2.22055671      -0.81147886       0.00000000
Si      -2.62581770       0.49295332      -2.61692744       0.00000000
Si      -3.51575670      -0.95742847       0.91111215       0.00000000
Si      -0.96371641      -3.57480632       1.10113020       0.00000000
