10
Lattice="16.290000149 0.0 0.0 0.0 16.290000149 0.0 0.0 0.0 29.1751946751" Properties=species:S:1:pos:R:3:initial_magmoms:R:1 pbc="T T T"
Si       2.23386401      -0.51451965       0.29960007       0.00000000
Si      -1.04739814       0.67319403       2.07528995       0.00000000
Si      -0.06147846       2.06394302      -1.29079814       0.00000000
Si      -0.65179549      -1.77311765      -1.58573018       0.00000000
Si      -2.36892440       1.97845636      -0.92578728       0.00000000
H       -0.62729533      -2.90007615       1.53995430       0.00000000
Si       2.78861997      -1.55214379      -1.70467745       0.00000000
Si      -3.11974680       1.39014626       1.22941353       0.00000000
Si       3.48294864       1.26722192      -0.53726121       0.00000000
Si       1.16576128      -3.23727915      -1.75585074       0.00000000
