10
Lattice="16.290000149 0.0 0.0 0.0 16.290000149 0.0 0.0 0.0 29.1751946751" Properties=species:S:1:pos:R:3:initial_magmoms:R:1 pbc="T T T"
Si      -1.33429746      -1.37668420      -1.34582256       0.00000000
Si       1.34620235      -1.35747829       1.36049768       0.00000000
Si       1.32942365       1.36024759      -1.38042434       0.00000000
Si      -1.38711306       1.36192546       1.32189890       0.00000000
Si      -2.66525905       0.03184695      -2.65488437       0.00000000
Si      -0.03387017       2.71430498       2.68198812       0.00000000
Si       2.69403697       0.00433314       2.71095909       0.00000000
Si       2.69297812       2.71376741      -0.02996293       0.00000000
Si       2.70527707      -2.71265969       0.00603927       0.00000000
Si       2.70542368      -0.00115659      -2.71454764       0.00000000
