10
Lattice="16.290000149 0.0 0.0 0.0 16.290000149 0.0 0.0 0.0 29.1751946751" Properties=species:S:1:pos:R:3:initial_magmoms:R:1 pbc="T T T"
Si      -1.44622621       1.19066869       1.35720234       0.00000000
Si      -1.35360127      -1.35182566      -1.33998752       0.00000000
Si       1.27293319      -1.49221288       1.34465701       0.00000000
Si       1.32033709       1.35896068      -1.48568844       0.00000000
Si       2.16966512      -0.52020486      -2.59516274       0.00000000
Si       0.36616662      -2.10931067      -2.71915732       0.00000000
Si      -0.01560582       2.54677862       2.63572210       0.00000000
Si      -2.80370125       2.42566247      -0.10473895       0.00000000
Si       2.69609276      -0.20312001       2.68426379       0.00000000
Si      -2.78883662      -0.27489375       2.59043636       0.00000000
