10
Lattice="16.290000149 0.0 0.0 0.0 16.290000149 0.0 0.0 0.0 29.1751946751" Properties=species:S:1:pos:R:3:initial_magmoms:R:1 pbc="T T T"
Si       1.35467641       1.35555607      -1.33345227       0.00000000
Si       1.39593898      -1.45077112       1.19247773       0.00000000
Si      -1.37753128      -1.36523233      -1.33607804       0.00000000
Si      -1.30471498       1.34635222       1.43051815       0.00000000
Si      -0.01881495      -2.77821066       2.43035207       0.00000000
Si       2.66211182       2.66950423       0.11203275       0.00000000
Si      -0.01998783       2.70278958      -2.66912186       0.00000000
Si       2.70712109      -0.02982699      -2.67020134       0.00000000
Si      -2.64771146      -0.03170034       2.74515242       0.00000000
Si      -2.70539435       2.68797220       0.07150840       0.00000000
