10
Lattice="16.290000149 0.0 0.0 0.0 16.290000149 0.0 0.0 0.0 29.1751946751" Properties=species:S:1:pos:R:3:initial_magmoms:R:1 pbc="T T T"
Si      -1.36355446      -1.35351982      -1.35046141       0.00000000
Si      -1.36883242       1.35353611       1.35037389       0.00000000
Si       1.34933329      -1.36184401       1.36303592       0.00000000
Si       1.35407368       1.34514676      -1.37534785       0.00000000
Si       2.69057045       2.69581583       0.01747594       0.00000000
Si       0.01244556      -2.71492400      -2.68458471       0.00000000
Si      -2.69297812      -2.71376741       0.02996293       0.00000000
Si       2.71487513      -0.00649971       2.70944198       0.00000000
Si      -0.02212182       2.69215058      -2.73555378       0.00000000
Si      -0.02756268       2.71526609       2.71486857       0.00000000
