10
Lattice="16.290000149 0.0 0.0 0.0 16.290000149 0.0 0.0 0.0 29.1751946751" Properties=species:S:1:pos:R:3:initial_magmoms:R:1 pbc="T T T"
Si       1.41475393       1.32743953      -1.23787433       0.00000000
Si      -1.42763932      -1.38846187      -1.17818189       0.00000000
Si       1.29428938      -1.29293731       1.42815495       0.00000000
Si      -1.08217729       1.42097671       1.49695006       0.00000000
H        2.14031054      -0.35818452       2.23563682       0.00000000
Si      -0.53862885      -2.11787921       2.59072811       0.00000000
Si       1.04730040       2.38958012       2.17261840       0.00000000
Si      -2.13926798      -0.34103115       2.67839957       0.00000000
Si       2.64935675       2.46337382       0.38514174       0.00000000
Si       0.00746082      -2.70989039      -2.45908963       0.00000000
