10
Lattice="16.290000149 0.0 0.0 0.0 16.290000149 0.0 0.0 0.0 29.1751946751" Properties=species:S:1:pos:R:3:initial_magmoms:R:1 pbc="T T T"
Si       0.27491656      -0.81748108      -2.15601771       0.00000000
Si      -2.27441959       0.47907261      -0.11801366       0.00000000
Si       1.28660702       1.98916214       0.11363738       0.00000000
Si       1.04101898      -1.54295623       1.47932825       0.00000000
Si      -2.55879413       1.19089186       2.09752145       0.00000000
Si       2.57385912      -0.22454136       2.66967619       0.00000000
Si       3.35895568       1.27220992       0.95951380       0.00000000
Si       1.92998057      -2.46927080      -2.05860174       0.00000000
Si       1.19142455       0.91530253      -3.43771319       0.00000000
Si       2.41597644      -2.88365583       0.15311142       0.00000000
