10
Lattice="16.290000149 0.0 0.0 0.0 16.290000149 0.0 0.0 0.0 29.1751946751" Properties=species:S:1:pos:R:3:initial_magmoms:R:1 pbc="T T T"
H       -1.13611348       0.07105698       0.99782083       0.00000000
Si       0.22027338      -2.13754124      -0.90518959       0.00000000
Si       2.05858361       0.69237388       0.90857391       0.00000000
Si      -0.23304474       1.51360165      -1.83561572       0.00000000
H       -0.46801170       0.98036479       2.63694162       0.00000000
H       -2.02610135       1.85080466       1.46018932       0.00000000
Si       2.34185042      -1.54627939      -1.91176298       0.00000000
H        2.40231890      -2.31744800       0.70601054       0.00000000
Si       3.31255524       0.45059769      -1.03487333       0.00000000
Si       1.70557931       2.81805600       1.82056132       0.00000000
