10
Lattice="16.290000149 0.0 0.0 0.0 16.290000149 0.0 0.0 0.0 29.1751946751" Properties=species:S:1:pos:R:3:initial_magmoms:R:1 pbc="T T T"
Si       1.34258760       1.36063855       1.35422501       0.00000000
Si      -1.33776739       1.37448505      -1.35253285       0.00000000
Si       1.36473386      -1.35169534      -1.34979038       0.00000000
Si      -1.35366643      -1.34820928       1.37307219       0.00000000
Si      -2.69690726       0.01001835      -2.68414709       0.00000000
Si       2.67240710       0.00205254       2.71933237       0.00000000
Si      -0.00653229      -2.72036486      -2.67425669       0.00000000
Si       2.69361668      -2.71191035       0.02412789       0.00000000
Si      -2.68394042       2.72275949       0.01353729       0.00000000
Si       2.69218316       2.72645733      -0.00974451       0.00000000
