10
Lattice="16.290000149 0.0 0.0 0.0 16.290000149 0.0 0.0 0.0 29.1751946751" Properties=species:S:1:pos:R:3:initial_magmoms:R:1 pbc="T T T"
Si       1.36270738       1.36471105      -1.32770476       0.00000000
Si      -1.35034327       1.36405945       1.35527532       0.00000000
Si       1.38421018      -1.33967332       1.34809822       0.00000000
Si      -1.33649677      -1.35066907      -1.39282379       0.00000000
Si       2.69992091      -0.07576479      -2.61500187       0.00000000
Si      -2.69057045      -2.69581583      -0.01747594       0.00000000
Si      -0.02090007       2.72060921      -2.66935526       0.00000000
Si       0.02430468      -2.70231554       2.69196604       0.00000000
Si      -2.71813313       0.01945026       2.69739262       0.00000000
Si       0.01757691       2.72605007       2.70585343       0.00000000
