10
Lattice="16.290000149 0.0 0.0 0.0 16.290000149 0.0 0.0 0.0 29.1751946751" Properties=species:S:1:pos:R:3:initial_magmoms:R:1 pbc="T T T"
H        0.84602116       0.93475279       0.80748186       0.00000000
Si       1.43016427      -1.44422254      -1.11953975       0.00000000
Si      -1.29428938       1.29293731      -1.42815495       0.00000000
Si      -1.83291824      -0.82494190       1.16257316       0.00000000
H        1.65643238       0.19096767       2.45786428       0.00000000
H        2.28576395       1.84456559       1.35652985       0.00000000
Si      -2.37646667       2.71391402       0.06879511       0.00000000
Si       2.77912290      -0.05339862      -2.46547900       0.00000000
Si       0.07014474      -2.75133216      -2.50965025       0.00000000
Si      -1.20668176      -1.23015565       3.31015924       0.00000000
