10
Lattice="16.290000149 0.0 0.0 0.0 16.290000149 0.0 0.0 0.0 29.1751946751" Properties=species:S:1:pos:R:3:initial_magmoms:R:1 pbc="T T T"
Si       1.42226362      -1.17553528      -1.46363199       0.00000000
Si      -1.31557715      -1.42719949       1.34739802       0.00000000
Si      -1.84362240       1.17898876      -0.93453984       0.00000000
Si       1.45000549       1.43790202       1.27714415       0.00000000
H        0.80365087       2.60394023      -1.44431801       0.00000000
Si      -0.47687346       2.56459988      -2.27053035       0.00000000
Si      -2.76444561       1.98931853       1.06772460       0.00000000
Si      -2.47995949       0.16590665       2.63805028       0.00000000
Si      -0.11057652      -2.49395015      -2.65397993       0.00000000
Si       2.80846119      -2.49390128      -0.03355147       0.00000000
