10
Lattice="16.290000149 0.0 0.0 0.0 16.290000149 0.0 0.0 0.0 29.1751946751" Properties=species:S:1:pos:R:3:initial_magmoms:R:1 pbc="T T T"
Si      -1.40249245       1.31940856       1.31422582       0.00000000
Si       1.37030993      -1.23755131       1.44548502       0.00000000
Si       1.33005734       1.39834990      -1.34240906       0.00000000
Si      -1.39247410      -1.37505520      -1.31151253       0.00000000
Si       2.56755978      -2.64067418      -0.03002128       0.00000000
Si      -0.11203285       2.72772794       2.63408245       0.00000000
Si       2.62822374       0.04026888      -2.76000259       0.00000000
Si       0.00298759      -2.66527208       2.74480231       0.00000000
Si      -2.72563142       2.68990256      -0.02354438       0.00000000
Si      -2.73299450      -0.01047447      -2.68756058       0.00000000
