10
Lattice="16.290000149 0.0 0.0 0.0 16.290000149 0.0 0.0 0.0 29.1751946751" Properties=species:S:1:pos:R:3:initial_magmoms:R:1 pbc="T T T"
Si       0.73497223      -1.33172380       1.78817686       0.00000000
Si      -1.76321333       0.96848938       1.24455545       0.00000000
Si       1.38176668       1.83529658      -0.74434674       0.00000000
Si       0.09881514      -1.72760339      -1.80544857       0.00000000
H       -2.16026579      -0.24912297      -1.30982037       0.00000000
Si       2.87184558       0.57070387      -2.02872634       0.00000000
Si       2.72463284      -2.22055671       0.81147886       0.00000000
Si      -0.79112386      -3.17798518       1.72259102       0.00000000
Si      -2.80303662       0.59826655      -2.38556814       0.00000000
Si       1.44575380      -0.70107274      -3.43453309       0.00000000
