10
Lattice="16.290000149 0.0 0.0 0.0 16.290000149 0.0 0.0 0.0 29.1751946751" Properties=species:S:1:pos:R:3:initial_magmoms:R:1 pbc="T T T"
H       -1.14867307      -0.52593894      -1.09269857       0.00000000
Si      -1.54233721       1.26346870       1.19834195       0.00000000
Si       1.13676508      -1.50820966       1.37745809       0.00000000
Si       1.65950467       0.78643234      -1.45379995       0.00000000
Si      -2.42678648      -1.08618463      -2.01300091       0.00000000
Si       3.06403500      -1.16812333      -1.46228993       0.00000000
Si      -0.14574663       2.58592349       2.56223270       0.00000000
Si       2.63746017      -0.12385287       2.55164794       0.00000000
Si       2.77025788       2.48958443      -0.20288430       0.00000000
Si       2.39831482      -2.93532771       0.04854752       0.00000000
