10
Lattice="16.290000149 0.0 0.0 0.0 16.290000149 0.0 0.0 0.0 29.1751946751" Properties=species:S:1:pos:R:3:initial_magmoms:R:1 pbc="T T T"
Si       0.98376940      -1.87014089       0.87195904       0.00000000
Si      -1.48638106      -1.01230948      -1.47258878       0.00000000
Si      -1.61142310       0.77975344       1.52306186       0.00000000
Si       1.65519434       1.52660107      -0.73912438       0.00000000
H        0.86496643       2.11128176       1.76273609       0.00000000
H       -0.87412141       0.84641212       2.84070118       0.00000000
H        0.22657761       2.55350639       1.76384474       0.00000000
Si      -1.95546791       2.73341316       0.15264462       0.00000000
Si       0.16610913       3.32467500      -0.85392877       0.00000000
Si      -0.05605389      -2.24036372      -2.75816455       0.00000000
