10
Lattice="16.290000149 0.0 0.0 0.0 16.290000149 0.0 0.0 0.0 29.1751946751" Properties=species:S:1:pos:R:3:initial_magmoms:R:1 pbc="T T T"
Si       1.82592983      -0.89836093       1.12954684       0.00000000
Si      -0.87562009       1.77886802       1.28688866       0.00000000
Si       1.12304890       1.44394561      -1.54791913       0.00000000
Si      -1.02659581      -2.14796684      -0.38805926       0.00000000
H       -1.93359044      -0.58596760      -1.88337552       0.00000000
Si       2.60942996       2.45625509      -0.07533035       0.00000000
Si      -0.05115060      -2.55007572      -2.54130533       0.00000000
Si      -1.95165605       0.61840099       3.00043537       0.00000000
Si       0.99800686       3.23600853       1.44773151       0.00000000
H        3.19614690      -0.63149815      -1.75774713       0.00000000
