10
Lattice="16.290000149 0.0 0.0 0.0 16.290000149 0.0 0.0 0.0 29.1751946751" Properties=species:S:1:pos:R:3:initial_magmoms:R:1 pbc="T T T"
Si      -1.20277216       1.87116716       0.65317426       0.00000000
Si      -1.53658684      -0.73425547      -1.59990933       0.00000000
Si       1.59982462       0.69959035      -1.57365165       0.00000000
Si       0.04929354      -1.44912583       1.94829033       0.00000000
H        0.20026926      -2.70350960      -0.77509740       0.00000000
H        0.07534125       2.43141284       1.57347660       0.00000000
H        1.53559315      -0.34503849      -2.66918021       0.00000000
Si      -2.76620493      -2.04234248      -0.09797030       0.00000000
H       -0.29286162       3.12556233      -2.00016382       0.00000000
Si       2.29138400      -1.95799286       2.23245672       0.00000000
