10
Lattice="16.290000149 0.0 0.0 0.0 16.290000149 0.0 0.0 0.0 29.1751946751" Properties=species:S:1:pos:R:3:initial_magmoms:R:1 pbc="T T T"
H        1.07724142      -1.71387092      -0.78233635       0.00000000
Si      -1.74366533       1.54337977       0.45021643       0.00000000
Si      -0.24834105       0.50968152      -2.30382275       0.00000000
Si       1.94044853       0.85586032       1.06594141       0.00000000
Si      -0.83179999      -1.99676306       1.09733392       0.00000000
Si       0.70770277       2.05874146       2.66051751       0.00000000
Si      -2.16958367      -0.83966806       2.65404937       0.00000000
Si       1.97499962      -2.46404171      -1.75678785       0.00000000
Si      -2.15391269      -0.78775183      -2.92852202       0.00000000
Si      -0.71079787       3.40044957       1.40494259       0.00000000
