10
Lattice="16.290000149 0.0 0.0 0.0 16.290000149 0.0 0.0 0.0 29.1751946751" Properties=species:S:1:pos:R:3:initial_magmoms:R:1 pbc="T T T"
Si      -1.37582083      -1.32019048       1.36361942       0.00000000
Si      -1.37368684       1.35211888      -1.34488895       0.00000000
Si       1.29029833      -1.36795276      -1.41213777       0.00000000
Si       1.40862889       1.32541957       1.35594635       0.00000000
Si       0.04334769      -2.69402393       2.61517693       0.00000000
Si       0.04300560       2.69511536       2.69952241       0.00000000
Si      -0.01104462       2.70277166      -2.69465016       0.00000000
Si       2.67880907      -0.00811242      -2.72528411       0.00000000
Si       2.60988608      -2.80955262      -0.13703589       0.00000000
Si      -2.73271269      -2.70174539       0.01347894       0.00000000
