10
Lattice="16.290000149 0.0 0.0 0.0 16.290000149 0.0 0.0 0.0 29.1751946751" Properties=species:S:1:pos:R:3:initial_magmoms:R:1 pbc="T T T"
Si       1.34662915       1.32948230      -1.34677950       0.00000000
Si      -1.35575155       1.39636904       1.28767639       0.00000000
Si       1.37202526      -1.35910078       1.31294211       0.00000000
Si      -1.30148956      -1.32376777      -1.42793614       0.00000000
Si      -2.67979136       0.01170274       2.64823242       0.00000000
Si      -0.01523115      -2.71947869       2.61564373       0.00000000
Si       0.03916116       2.73899085       2.61523528       0.00000000
Si       2.72890083       0.01323074       2.64849500       0.00000000
Si      -2.57651765       0.05039963      -2.81778990       0.00000000
Si      -2.65124314       2.74812954      -0.14380453       0.00000000
