10
Lattice="16.290000149 0.0 0.0 0.0 16.290000149 0.0 0.0 0.0 29.1751946751" Properties=species:S:1:pos:R:3:initial_magmoms:R:1 pbc="T T T"
Si       1.36958176      -1.34270326       1.35241615       0.00000000
Si       1.37622808       1.35692443      -1.33149753       0.00000000
Si      -1.32027193       1.36818082       1.38305010       0.00000000
Si      -1.36792018      -1.36199062      -1.35057811       0.00000000
Si      -0.01892898      -2.70254360       2.66556249       0.00000000
Si      -0.00610875       2.71594702      -2.65406746       0.00000000
Si       2.72772794      -0.01762578      -2.68012091       0.00000000
Si      -2.68291415       0.01752804       2.73281131       0.00000000
Si      -2.71029764       2.71637056       0.05035639       0.00000000
Si      -0.01757691      -2.72605007      -2.70585343       0.00000000
