10
Lattice="16.290000149 0.0 0.0 0.0 16.290000149 0.0 0.0 0.0 29.1751946751" Properties=species:S:1:pos:R:3:initial_magmoms:R:1 pbc="T T T"
Si      -1.36308205      -0.58259557      -0.27106673       0.00000000
H        0.88998787      -1.77974768      -0.46236849       0.00000000
H        1.55808964      -0.87043987       1.17675230       0.00000000
Si       1.03032622      -1.12101265       2.56610425       0.00000000
Si      -2.73803951       0.75810403       1.05515009       0.00000000
Si      -1.84907792      -0.16821054      -2.48277989       0.00000000
Si       2.02610135      -1.85080466      -1.46018932       0.00000000
H        2.75063169       0.91328257       1.52163228       0.00000000
Si      -1.20519937       2.07651890       2.24549803       0.00000000
Si      -0.02450016       1.12695850      -3.12568448       0.00000000
