10
Lattice="16.290000149 0.0 0.0 0.0 16.290000149 0.0 0.0 0.0 29.1751946751" Properties=species:S:1:pos:R:3:initial_magmoms:R:1 pbc="T T T"
Si       1.31958775      -1.44159985       1.27510188       0.00000000
Si      -1.34921926      -1.36168111      -1.34722296       0.00000000
Si       1.38851074       1.35984034      -1.31314634       0.00000000
Si      -1.29029833       1.36795276       1.41213777       0.00000000
Si       2.74722708      -0.05313798       2.45328377       0.00000000
Si       0.01892898       2.70254360      -2.66556249       0.00000000
Si      -2.66398517       2.72007164       0.06724882       0.00000000
Si      -2.71678106      -0.00405621      -2.67402329       0.00000000
Si      -0.06380793      -2.77736358       2.61570208       0.00000000
Si       2.74072737      -0.00983916      -2.66357857       0.00000000
