10
Lattice="16.290000149 0.0 0.0 0.0 16.290000149 0.0 0.0 0.0 29.1751946751" Properties=species:S:1:pos:R:3:initial_magmoms:R:1 pbc="T T T"
Si      -1.21324663       1.32074434      -1.52880938       0.00000000
Si       1.34527708       1.44974485       1.28595506       0.00000000
Si      -1.60000381      -1.03790107       1.41006633       0.00000000
Si       1.78253327      -1.54108288      -0.64675572       0.00000000
H       -0.86951134      -1.68907754      -1.73137275       0.00000000
H       -0.23112252      -2.13130217      -1.73248141       0.00000000
H        1.35677782       0.61996483      -2.87705347       0.00000000
Si      -0.04251690      -2.35041896       2.50089769       0.00000000
Si       1.02302830      -3.43080435       0.61480888       0.00000000
Si       0.04072500       1.07896816      -3.47225662       0.00000000
