10
Lattice="16.290000149 0.0 0.0 0.0 16.290000149 0.0 0.0 0.0 29.1751946751" Properties=species:S:1:pos:R:3:initial_magmoms:R:1 pbc="T T T"
Si      -1.39491271      -1.34262181      -1.32755888       0.00000000
Si      -1.35907471       1.35518140       1.35445841       0.00000000
Si       1.32957352      -1.36951660       1.37280961       0.00000000
Si       1.36050823       1.34392501      -1.37269291       0.00000000
Si      -0.03916116      -2.73899085      -2.61523528       0.00000000
Si       2.70635546       2.70101234      -0.00956946       0.00000000
Si       2.68973966      -2.72576011       0.03325972       0.00000000
Si      -2.70527707       2.71265969      -0.00603927       0.00000000
Si       2.70330923      -0.02259423       2.71551042       0.00000000
Si      -0.01124010       2.71699283       2.70491982       0.00000000
