10
Lattice="16.290000149 0.0 0.0 0.0 16.290000149 0.0 0.0 0.0 29.1751946751" Properties=species:S:1:pos:R:3:initial_magmoms:R:1 pbc="T T T"
Si      -1.37139973      -1.37167340      -1.32933857       0.00000000
Si       1.34661938       1.35444184      -1.37537703       0.00000000
Si       1.40593127      -1.33819745       1.33278124       0.00000000
Si      -1.39547635       1.33797265       1.34745637       0.00000000
Si      -0.01673146       2.69947457       2.68157967       0.00000000
Si       0.07060086      -2.68857330       2.70386952       0.00000000
Si      -2.70424754      -0.00579761      -2.70092282       0.00000000
Si      -2.70066374       2.71814291      -0.02643273       0.00000000
Si      -0.00212910      -2.71165623      -2.70888765       0.00000000
Si       2.70232206       2.72223170      -0.03792775       0.00000000
