10
Lattice="16.290000149 0.0 0.0 0.0 16.290000149 0.0 0.0 0.0 29.1751946751" Properties=species:S:1:pos:R:3:initial_magmoms:R:1 pbc="T T T"
Si       1.35599590      -1.35830908       1.30217646       0.00000000
Si       1.37057545       1.25299423      -1.43355237       0.00000000
Si      -1.31057938      -1.42925203      -1.32364941       0.00000000
Si      -1.19724985       1.40312287       1.47550630       0.00000000
Si      -2.56755978       2.64067418       0.03002128       0.00000000
Si       2.72170064       2.59545314      -0.12230242       0.00000000
Si      -2.64039888      -0.07066602      -2.68875677       0.00000000
Si       2.74356183      -0.00708615       2.59527944       0.00000000
Si      -2.56457219      -0.02459790       2.77482359       0.00000000
Si       0.00850338      -2.66782961       2.69155758       0.00000000
