10
Lattice="16.290000149 0.0 0.0 0.0 16.290000149 0.0 0.0 0.0 29.1751946751" Properties=species:S:1:pos:R:3:initial_magmoms:R:1 pbc="T T T"
Si       1.31963499      -1.33628500      -1.40726552       0.00000000
Si       1.39247410       1.37505520       1.31151253       0.00000000
Si      -1.34052040       1.36458073      -1.37604806       0.00000000
Si      -1.35518140      -1.34737849       1.39326142       0.00000000
Si      -0.01001835       2.69446376       2.62573835       0.00000000
Si       2.64945449      -2.69487101      -0.04215816       0.00000000
Si      -2.69922044      -2.67415013      -0.01441255       0.00000000
Si      -2.72381835       2.70772382      -0.04055352       0.00000000
Si       2.66923055       0.02953377      -2.77123504       0.00000000
Si       0.03782668      -2.70202232       2.74331438       0.00000000
