10
Lattice="16.28999089631971 0.0 0.0 0.0 16.28999089631971 0.0 0.0 0.0 34.642051614445585" Properties=species:S:1:pos:R:3:initial_magmoms:R:1 pbc="T T T"
Si       0.81003654      -2.20517404       0.34659392       0.00000000
Si      -2.22884830      -0.30273336       0.76288769       0.00000000
Si      -0.47631960       0.03446964      -2.35649224       0.00000000
Si       1.05000453       1.36647036       1.80942465       0.00000000
Si       0.82810215      -2.04769535      -2.50153859       0.00000000
Si      -1.35633635      -1.01364525       2.89095011       0.00000000
Si       0.39952854      -2.68936497       2.67298220       0.00000000
Si      -0.31698711       0.90459999       3.76645917       0.00000000
Si       3.38076144       0.92341494       1.93908992       0.00000000
Si      -3.67332074       1.64594160       0.28666314       0.00000000
