10
Lattice="16.28999089631971 0.0 0.0 0.0 16.28999089631971 0.0 0.0 0.0 34.642051614445585" Properties=species:S:1:pos:R:3:initial_magmoms:R:1 pbc="T T T"
Si       1.32919884       1.35215145      -1.36913432       0.00000000
Si       1.35338949      -1.35755973       1.35990914       0.00000000
Si      -1.36124127       1.35632169       1.35925094       0.00000000
Si      -1.36992384      -1.35697329      -1.39898193       0.00000000
Si       2.70870120      -2.71522860      -0.00045035       0.00000000
Si       2.71143792      -0.00050499       2.71656192       0.00000000
Si       2.71226871       2.71731861      -0.00055427       0.00000000
Si      -0.00314397       2.71479366       2.71659656       0.00000000
Si      -0.00267156      -2.71558698       2.71690834       0.00000000
Si      -2.71907793      -2.71367454      -0.00135104       0.00000000
