10
Lattice="16.28999089631971 0.0 0.0 0.0 16.28999089631971 0.0 0.0 0.0 34.642051614445585" Properties=species:S:1:pos:R:3:initial_magmoms:R:1 pbc="T T T"
Si      -1.36824597       1.27491290      -1.28948181       0.00000000
Si      -1.63722645      -1.18043548       1.21067110       0.00000000
Si       1.36961433      -1.45212010      -1.24995520       0.00000000
Si       0.90590319       1.72062522       1.46646815       0.00000000
Si       0.82927503       0.15074326       3.20213983       0.00000000
Si      -0.09866853      -2.05840132       2.74108851       0.00000000
Si       0.00938304       2.61582588      -2.61398675       0.00000000
Si      -2.62562220       2.64112425       0.12582000       0.00000000
Si      -2.70588303      -0.09594502      -2.61086896       0.00000000
Si       2.72544732      -0.10246102      -2.61066111       0.00000000
