10
Lattice="16.28999089631971 0.0 0.0 0.0 16.28999089631971 0.0 0.0 0.0 34.642051614445585" Properties=species:S:1:pos:R:3:initial_magmoms:R:1 pbc="T T T"
Si       1.39323483      -1.71103059       0.83615567       0.00000000
Si       1.57488462       0.98479240      -1.55844285       0.00000000
Si       0.06717996       1.28026042       2.06328175       0.00000000
Si      -2.13099264      -0.38068427      -1.11696429       0.00000000
Si       3.03554376      -0.22546174       1.60759995       0.00000000
Si       1.46624661      -0.60640177      -3.31735936       0.00000000
Si      -2.43103815      -2.72252556      -0.81769144       0.00000000
Si       3.60593811       1.06883251      -0.30921513       0.00000000
Si       0.85024026       3.23209564      -1.85085657       0.00000000
Si      -1.72048464       0.10350666      -3.44335257       0.00000000
