10
Lattice="16.28999089631971 0.0 0.0 0.0 16.28999089631971 0.0 0.0 0.0 34.642051614445585" Properties=species:S:1:pos:R:3:initial_magmoms:R:1 pbc="T T T"
Si      -1.71035226      -0.36580661      -1.52535967       0.00000000
Si       0.10863801       1.59119417       1.75891651       0.00000000
Si       2.17440549      -0.44256183      -0.85891551       0.00000000
Si      -0.32374746      -2.33195001       0.52157102       0.00000000
Si       1.24646193      -2.65170642      -1.31996683       0.00000000
Si      -3.18673125       0.70990843      -0.12599321       0.00000000
Si      -0.29209599      -1.77374058      -2.85038424       0.00000000
Si       2.25103365       1.12732013      -2.59458719       0.00000000
Si      -1.46624661       0.60640177       3.31735936       0.00000000
Si       0.88871724      -2.50856619       2.55180423       0.00000000
