10
Lattice="16.28999089631971 0.0 0.0 0.0 16.28999089631971 0.0 0.0 0.0 34.642051614445585" Properties=species:S:1:pos:R:3:initial_magmoms:R:1 pbc="T T T"
Si      -2.18194776       0.09498699       0.88576311       0.00000000
Si       1.19860191       1.59834222       1.28580975       0.00000000
Si       0.70996707      -1.77612739       1.43380068       0.00000000
Si       0.17596458       0.79622262      -2.31648064       0.00000000
Si      -1.15251750      -2.81263859      -1.10141000       0.00000000
Si      -1.69266132      -2.07406628       1.84895125       0.00000000
Si       2.43252054       1.41358104      -1.95346638       0.00000000
Si       3.26342457       1.50913818       0.26521970       0.00000000
Si      -3.30121737       1.06214058      -1.03250693       0.00000000
Si      -1.66690683       2.26121490      -2.29756607       0.00000000
