10
Lattice="16.28999089631971 0.0 0.0 0.0 16.28999089631971 0.0 0.0 0.0 34.642051614445585" Properties=species:S:1:pos:R:3:initial_magmoms:R:1 pbc="T T T"
Si      -1.84287141       1.46499228       0.01891457       0.00000000
Si       2.25655596       0.61735842       0.36301426       0.00000000
Si      -0.06717996      -1.28026042      -2.06328175       0.00000000
Si      -0.17596458      -0.79622262       2.31648064       0.00000000
Si       2.96836380      -1.50572217      -0.45568180       0.00000000
Si       1.32605487      -2.99129102      -1.22712608       0.00000000
Si      -0.88883127       3.37154130       1.09077489       0.00000000
Si      -3.47718195       0.26591796       1.28397372       0.00000000
Si       1.02263733       0.80211960       3.60229039       0.00000000
Si       1.50770466      -0.29546802      -3.62172459       0.00000000
