10
Lattice="16.28999089631971 0.0 0.0 0.0 16.28999089631971 0.0 0.0 0.0 34.642051614445585" Properties=species:S:1:pos:R:3:initial_magmoms:R:1 pbc="T T T"
Si      -1.18493460      -1.83708587      -0.91084397       0.00000000
Si       1.45831338      -1.23319372       1.44876605       0.00000000
Si       1.88817390       1.18043204      -0.96110962       0.00000000
Si      -1.30442175       2.08216499       0.14504635       0.00000000
Si      -0.01806561      -0.15747869       2.84813251       0.00000000
Si      -2.26688056      -0.22232103      -2.33830515       0.00000000
Si      -0.82810215       2.04769535       2.50153859       0.00000000
Si       0.47745990       2.51815055      -2.34138829       0.00000000
Si      -3.33060942       1.38382898      -0.99485099       0.00000000
Si       0.42505497      -2.91465308      -2.33969083       0.00000000
