10
Lattice="16.28999089631971 0.0 0.0 0.0 16.28999089631971 0.0 0.0 0.0 34.642051614445585" Properties=species:S:1:pos:R:3:initial_magmoms:R:1 pbc="T T T"
Si      -1.35553977       1.35480672       1.35731098       0.00000000
Si       1.35668007       1.35708732      -1.35595994       0.00000000
Si      -1.35718506      -1.35868374      -1.35668743       0.00000000
Si       1.35575154      -1.35966114       1.35835024       0.00000000
Si       0.02508660      -2.70751203       2.71569587       0.00000000
Si       0.00946449       2.70962973       2.71625014       0.00000000
Si      -0.00035838       2.71393029      -2.71392912       0.00000000
Si       2.71414206       2.71420722       0.00038106       0.00000000
Si      -2.71508036      -0.00112401      -2.71340949       0.00000000
Si      -2.71447763       2.71423980       0.00128176       0.00000000
