10
Lattice="16.28999089631971 0.0 0.0 0.0 16.28999089631971 0.0 0.0 0.0 34.642051614445585" Properties=species:S:1:pos:R:3:initial_magmoms:R:1 pbc="T T T"
Si       0.03653847      -1.40136354      -1.94584513       0.00000000
Si      -1.10105739      -0.55102554       2.11773908       0.00000000
Si       2.39606352       0.36137736       0.42034689       0.00000000
Si      -1.56649527       2.12633370      -0.35532372       0.00000000
Si       1.00838358       0.38939616      -3.28327156       0.00000000
Si       2.91024108       0.91843020      -1.89163029       0.00000000
Si      -0.37641303      -2.79832878       2.41015280       0.00000000
Si      -0.27767934       0.91992888       3.82309895       0.00000000
Si      -3.43181430      -0.10797012       1.98807381       0.00000000
Si       2.68638390       2.49838101       1.55168764       0.00000000
