10
Lattice="16.28999089631971 0.0 0.0 0.0 16.28999089631971 0.0 0.0 0.0 34.642051614445585" Properties=species:S:1:pos:R:3:initial_magmoms:R:1 pbc="T T T"
Si      -0.97287138       0.86855022       1.94231164       0.00000000
Si      -1.46297232       0.32946525      -1.82245007       0.00000000
Si       0.44849628      -2.23995645       0.68906543       0.00000000
Si       1.87445772       1.42327359      -0.40084340       0.00000000
Si       2.51331894      -2.32916049      -0.33152462       0.00000000
Si       3.50355546      -0.22157658       0.03041574       0.00000000
Si       2.09761443       2.64619647       1.62201105       0.00000000
Si      -3.16991997      -0.06209748       2.04755425       0.00000000
Si      -0.14046867       3.12790806       2.11181529       0.00000000
Si      -3.18414114       1.77973137      -1.16064795       0.00000000
