10
Lattice="16.28999089631971 0.0 0.0 0.0 16.28999089631971 0.0 0.0 0.0 34.642051614445585" Properties=species:S:1:pos:R:3:initial_magmoms:R:1 pbc="T T T"
Si       1.35821133       1.34449515       1.38641379       0.00000000
Si      -1.35366642      -1.37570679       1.38727984       0.00000000
Si       1.47934377      -1.32388830      -1.38859970       0.00000000
Si      -1.37718918       1.46782674      -1.47625453       0.00000000
Si      -2.70875007      -2.70624141       0.02274945       0.00000000
Si       2.70914103       2.70697446      -0.00436837       0.00000000
Si       2.71353933      -2.72318301       0.04293192       0.00000000
Si      -2.72018565       2.71950147       0.01674251       0.00000000
Si       0.00213399       2.70140328       2.74791646       0.00000000
Si      -2.71145421      -0.01428633       2.74829752       0.00000000
