10
Lattice="16.28999089631971 0.0 0.0 0.0 16.28999089631971 0.0 0.0 0.0 34.642051614445585" Properties=species:S:1:pos:R:3:initial_magmoms:R:1 pbc="T T T"
Si      -1.35508365      -1.33053462      -1.36453039       0.00000000
Si       1.35705474      -1.35325917       1.36094840       0.00000000
Si      -1.35778779       1.36142046       1.36101768       0.00000000
Si       1.35366642       1.37570679      -1.38727984       0.00000000
Si       2.71471221      -2.70857088       0.00062356       0.00000000
Si      -0.00070047      -2.71109583       2.71777439       0.00000000
Si      -2.71855665      -2.71117728       0.00121247       0.00000000
Si       2.71187775       2.72020194      -0.00086605       0.00000000
Si       2.71474479       0.00340461       2.71808617       0.00000000
Si      -2.71591767       0.00384444       2.71773975       0.00000000
