10
Lattice="16.28999089631971 0.0 0.0 0.0 16.28999089631971 0.0 0.0 0.0 34.642051614445585" Properties=species:S:1:pos:R:3:initial_magmoms:R:1 pbc="T T T"
Si      -1.35273789       1.35749457       1.35980521       0.00000000
Si      -1.35628911      -1.35752715      -1.35661814       0.00000000
Si       1.35808101       1.35757602      -1.35672207       0.00000000
Si       1.35878148      -1.35892809       1.35897380       0.00000000
Si      -2.71328846      -2.71453302       0.00152425       0.00000000
Si      -2.71405409       0.00032580      -2.71382520       0.00000000
Si       0.00083079      -2.71484253      -2.71368663       0.00000000
Si       0.00130320       2.71531494      -2.71351342       0.00000000
Si       2.71568961       0.00092853      -2.71372127       0.00000000
Si       2.71533123      -2.71456560       0.00062356       0.00000000
