10
Lattice="16.28999089631971 0.0 0.0 0.0 16.28999089631971 0.0 0.0 0.0 34.642051614445585" Properties=species:S:1:pos:R:3:initial_magmoms:R:1 pbc="T T T"
Si      -2.42724258      -0.70973901      -0.44792198       0.00000000
Si       0.69695136      -2.10299013       1.34948187       0.00000000
Si      -2.18318580       1.51213554       1.18933158       0.00000000
Si      -0.29067876       2.16140607       2.52651552       0.00000000
Si       2.71580364      -2.55024837       0.12256365       0.00000000
Si       1.80828774       1.19816208       3.05019971       0.00000000
Si      -1.53707553      -2.92229568      -1.78444772       0.00000000
Si       1.50897528      -1.13184549       3.32477276       0.00000000
Si       3.48628806       1.68176331      -1.02270322       0.00000000
Si       3.78527472      -0.62579664      -1.15500129       0.00000000
