10
Lattice="16.28999089631971 0.0 0.0 0.0 16.28999089631971 0.0 0.0 0.0 34.642051614445585" Properties=species:S:1:pos:R:3:initial_magmoms:R:1 pbc="T T T"
Si       1.47637899      -1.07571504      -1.39936646       0.00000000
Si      -0.81003654       2.20517404      -0.34659392       0.00000000
Si      -0.41050800      -0.48419093       2.32638828       0.00000000
Si       0.01806561       0.15747869      -2.84813251       0.00000000
Si       3.18673125      -0.70990843       0.12599321       0.00000000
Si      -2.16637289       1.19152879       2.54435619       0.00000000
Si      -3.03888484       1.90244068       0.41629377       0.00000000
Si      -1.28635614       2.23964368      -2.70308616       0.00000000
Si       1.72048464      -0.10350666       3.44335257       0.00000000
Si       0.23996799       3.57164440       1.46283073       0.00000000
