10
Lattice="16.28999089631971 0.0 0.0 0.0 16.28999089631971 0.0 0.0 0.0 34.642051614445585" Properties=species:S:1:pos:R:3:initial_magmoms:R:1 pbc="T T T"
Si      -1.66109130      -1.26115551      -1.17117914       0.00000000
Si      -0.63931734       2.07617679       1.06416978       0.00000000
Si       1.46624661       0.53126577      -1.87233465       0.00000000
Si       0.55117215      -1.42302924       1.91802754       0.00000000
Si      -0.29098827      -2.46558924      -2.80313246       0.00000000
Si       1.37300265       2.91415068       1.95499063       0.00000000
Si      -2.78625789      -2.51683758       0.49642088       0.00000000
Si      -1.32328557      -2.84630283       2.31887095       0.00000000
Si       0.65422269      -0.43987887      -3.84762554       0.00000000
Si       1.76555907       2.86127334      -2.14690771       0.00000000
