10
Lattice="16.28999089631971 0.0 0.0 0.0 16.28999089631971 0.0 0.0 0.0 34.642051614445585" Properties=species:S:1:pos:R:3:initial_magmoms:R:1 pbc="T T T"
Si      -1.36273995       1.36269108      -1.26038247       0.00000000
Si       1.08877473       1.63621647       1.20304984       0.00000000
Si       1.39564575      -1.37016819      -1.24735705       0.00000000
Si      -0.97484247      -1.59171219       1.38859277       0.00000000
Si       0.71428392      -3.10700799       0.89120192       0.00000000
Si      -2.68934868      -0.00071676      -2.61821308       0.00000000
Si       0.02217069      -2.71713942      -2.61904449       0.00000000
Si       0.02011815       2.72070693      -2.61849022       0.00000000
Si       2.73873996      -0.00037467      -2.62157336       0.00000000
Si      -2.97272952       2.44025829       0.16846439       0.00000000
