10
Lattice="16.28999089631971 0.0 0.0 0.0 16.28999089631971 0.0 0.0 0.0 34.642051614445585" Properties=species:S:1:pos:R:3:initial_magmoms:R:1 pbc="T T T"
Si       2.09896650      -0.96324399       0.52368419       0.00000000
Si      -1.03290003      -0.06814107       2.17185000       0.00000000
Si      -1.89250704      -0.64927053      -1.33718394       0.00000000
Si       0.72376470       2.18186631      -0.75259899       0.00000000
Si       0.29067876      -2.16140607      -2.52651552       0.00000000
Si      -0.80544276       2.21250780       2.66757803       0.00000000
Si      -0.48870000       2.35848249      -2.78283220       0.00000000
Si      -0.23796432       3.58580367       0.84911180       0.00000000
Si      -2.61205263       1.39730733      -2.29275083       0.00000000
Si       3.63485286      -0.07661187      -1.14065947       0.00000000
