10
Lattice="16.28999089631971 0.0 0.0 0.0 16.28999089631971 0.0 0.0 0.0 34.642051614445585" Properties=species:S:1:pos:R:3:initial_magmoms:R:1 pbc="T T T"
Si      -1.35672894       1.35664182      -1.35713777       0.00000000
Si       1.35671265       1.35745469       1.35772669       0.00000000
Si       1.35705474      -1.35769151      -1.35738027       0.00000000
Si      -1.35700587      -1.35878294       1.35800382       0.00000000
Si       0.00210141      -2.71534898       2.71264737       0.00000000
Si      -2.71340901      -0.00146756      -2.71469125       0.00000000
Si      -2.71422351       2.71450617      -0.00045035       0.00000000
Si      -0.00066789       2.71466907      -2.71413698       0.00000000
Si      -0.00070047      -2.71476254      -2.71458732       0.00000000
Si       2.71526607       2.71462020      -0.00013857       0.00000000
