10
Lattice="16.28999089631971 0.0 0.0 0.0 16.28999089631971 0.0 0.0 0.0 34.642051614445585" Properties=species:S:1:pos:R:3:initial_magmoms:R:1 pbc="T T T"
Si      -1.02214863       1.15170300       1.83973646       0.00000000
Si      -0.60427755      -2.24040442       0.68158275       0.00000000
Si      -1.10833902       0.52965306      -2.09986377       0.00000000
Si       2.31410853       0.80350425       0.15679001       0.00000000
Si      -0.96822873       2.89300626      -2.31557995       0.00000000
Si      -3.10229529       2.14400835       0.82985081       0.00000000
Si      -1.57879422      -3.33984815      -1.20194129       0.00000000
Si       0.15657948       3.23077941       2.19848975       0.00000000
Si       1.35122292      -3.41628083       1.55071767       0.00000000
Si      -3.46122589      -0.06649578      -2.06352424       0.00000000
