10
Lattice="16.28999089631971 0.0 0.0 0.0 16.28999089631971 0.0 0.0 0.0 34.642051614445585" Properties=species:S:1:pos:R:3:initial_magmoms:R:1 pbc="T T T"
Si       1.32458877      -1.35644875      -1.44114479       0.00000000
Si       1.16427888       1.71561393       1.19165260       0.00000000
Si      -1.85305266      -0.88539408       1.26523236       0.00000000
Si      -1.37694483       1.35474156      -1.45541733       0.00000000
Si      -0.70879419       3.29523894       1.31695297       0.00000000
Si      -2.75895585      -2.60601930      -0.20123579       0.00000000
Si      -2.61065169       2.76620490      -0.07468831       0.00000000
Si       2.76509718      -2.62966945      -0.04933031       0.00000000
Si       2.68146432       0.00573408      -2.80670059       0.00000000
Si      -0.03350853      -2.70848033      -2.81189690       0.00000000
