10
Lattice="16.28999089631971 0.0 0.0 0.0 16.28999089631971 0.0 0.0 0.0 34.642051614445585" Properties=species:S:1:pos:R:3:initial_magmoms:R:1 pbc="T T T"
Si      -1.31595507       1.32678792       1.43632608       0.00000000
Si       0.65684538       1.88656119      -1.27504442       0.00000000
Si       1.41571503      -1.35011520       1.44285958       0.00000000
Si      -1.12417290      -1.62119709      -1.44291989       0.00000000
Si       0.81396243      -3.27454249      -1.50669595       0.00000000
Si       2.63635731       2.68631874       0.00938107       0.00000000
Si       2.67483429      -2.72424675       0.03698041       0.00000000
Si      -2.78348859       2.64127689       0.00587183       0.00000000
Si      -2.64515391      -0.02536353       2.80546040       0.00000000
Si       0.06711480       2.69195508       2.80490613       0.00000000
