10
Lattice="16.28999089631971 0.0 0.0 0.0 16.28999089631971 0.0 0.0 0.0 34.642051614445585" Properties=species:S:1:pos:R:3:initial_magmoms:R:1 pbc="T T T"
Si      -1.35609363      -1.35580041       1.35686064       0.00000000
Si       1.35666378      -1.35733167      -1.35744955       0.00000000
Si      -1.35791811       1.35796698      -1.35741491       0.00000000
Si       1.35891180       1.35826020       1.35751884       0.00000000
Si      -0.00197109      -2.71155195       2.71264737       0.00000000
Si      -0.00138465      -2.71438641      -2.71410233       0.00000000
Si       2.71454931      -2.71443528      -0.00010393       0.00000000
Si      -2.71494027      -2.71454931      -0.00041570       0.00000000
Si       2.71463076       0.00065160      -2.71507231       0.00000000
Si      -0.00016290       2.71580364      -2.71424090       0.00000000
