10
Lattice="16.28999089631971 0.0 0.0 0.0 16.28999089631971 0.0 0.0 0.0 34.642051614445585" Properties=species:S:1:pos:R:3:initial_magmoms:R:1 pbc="T T T"
Si      -1.36357074      -1.35058761      -1.34989065       0.00000000
Si       1.35435060      -1.35557235       1.35492068       0.00000000
Si       1.36886499       1.34299647      -1.35475786       0.00000000
Si      -1.35767376       1.35700587       1.35537103       0.00000000
Si       0.02852379       2.63425590      -2.73942569       0.00000000
Si      -2.59776630       0.04870710      -2.78142227       0.00000000
Si       2.71129131      -2.71103067      -0.00758661       0.00000000
Si       2.71322982       0.00094482       2.71240487       0.00000000
Si      -0.00193851      -2.71360449       2.71240487       0.00000000
Si      -2.71606428      -2.71168227      -0.00491917       0.00000000
