10
Lattice="16.28999089631971 0.0 0.0 0.0 16.28999089631971 0.0 0.0 0.0 34.642051614445585" Properties=species:S:1:pos:R:3:initial_magmoms:R:1 pbc="T T T"
Si      -0.29931246      -2.33000757       0.27457305       0.00000000
Si      -2.09896650       0.96324399      -0.52368419       0.00000000
Si       0.81935442       0.74200950       2.13897467       0.00000000
Si       1.53588636       0.88663212      -1.66434366       0.00000000
Si      -3.13186653       0.89510292       1.64816581       0.00000000
Si      -1.37520180       3.14511030      -1.27628318       0.00000000
Si       1.03755897       3.19762926      -1.49158365       0.00000000
Si       2.62267371      -0.77354694       2.53999129       0.00000000
Si      -1.80828774      -1.19816208      -3.05019971       0.00000000
Si      -1.11133638      -3.30115221      -1.70071783       0.00000000
