10
Lattice="16.28999089631971 0.0 0.0 0.0 16.28999089631971 0.0 0.0 0.0 34.642051614445585" Properties=species:S:1:pos:R:3:initial_magmoms:R:1 pbc="T T T"
Si      -1.69678269      -1.59133752       0.45422683       0.00000000
Si       0.52132887       0.94830606       2.12106472       0.00000000
Si       1.93293882      -0.73891440      -1.18441241       0.00000000
Si      -1.09810890       1.52291952      -1.53166453       0.00000000
Si      -1.60638948       1.72600695       2.79727795       0.00000000
Si       1.91712123       0.69649524      -3.09357158       0.00000000
Si      -1.91993940      -2.81426040      -1.56862762       0.00000000
Si      -1.52493948       3.49172892      -0.34797960       0.00000000
Si      -3.11042889       0.68494563      -2.42248538       0.00000000
Si      -1.25672463      -3.13852914       2.17631882       0.00000000
