10
Lattice="16.28999089631971 0.0 0.0 0.0 16.28999089631971 0.0 0.0 0.0 34.642051614445585" Properties=species:S:1:pos:R:3:initial_magmoms:R:1 pbc="T T T"
Si       1.35583299       1.34965908      -1.36070591       0.00000000
Si      -1.36961433       1.45212010       1.24995520       0.00000000
Si      -1.35687555      -1.36490652      -1.36399690       0.00000000
Si       1.30670235      -1.30264614       1.48448203       0.00000000
Si       2.71393029       2.70169065       0.01004620       0.00000000
Si       2.70169650      -2.72354139       0.02490765       0.00000000
Si      -0.00226431       2.70789714      -2.71891758       0.00000000
Si       2.71324611      -0.00783549      -2.71877901       0.00000000
Si      -2.71598283      -0.00834048      -2.71864045       0.00000000
Si      -2.69996976      -2.73470004       0.01021941       0.00000000
