10
Lattice="16.28999089631971 0.0 0.0 0.0 16.28999089631971 0.0 0.0 0.0 34.642051614445585" Properties=species:S:1:pos:R:3:initial_magmoms:R:1 pbc="T T T"
Si      -1.06591986      -1.55128041      -1.51902017       0.00000000
Si      -1.32483312       1.86088815       0.85714876       0.00000000
Si       1.37062431      -0.65748069       1.93230008       0.00000000
Si       1.45015209       1.16452323      -1.64941293       0.00000000
Si       3.40368147       0.55083006       1.07321136       0.00000000
Si       1.66961097      -2.96504064       1.80000201       0.00000000
Si       3.02098050       2.40244920      -0.46659405       0.00000000
Si      -3.23788185      -2.00437047      -0.98511657       0.00000000
Si       0.14344974       2.46716937      -3.13389495       0.00000000
Si      -2.86339104       2.73885399      -0.67326865       0.00000000
