10
Lattice="16.28999089631971 0.0 0.0 0.0 16.28999089631971 0.0 0.0 0.0 34.642051614445585" Properties=species:S:1:pos:R:3:initial_magmoms:R:1 pbc="T T T"
Si      -0.94921830      -0.64166310       2.05663047       0.00000000
Si       0.83499282       2.16676289      -0.42408823       0.00000000
Si       1.93373703      -1.37790594      -0.13562371       0.00000000
Si      -1.53472977      -0.50875299      -1.78025603       0.00000000
Si      -1.03640238      -2.81975013      -1.95301604       0.00000000
Si       2.96403066       1.76344693      -1.43878913       0.00000000
Si      -2.34986508       1.18488573       2.65742791       0.00000000
Si       1.36252818      -3.02477607      -1.72742687       0.00000000
Si      -0.99289179       1.14637617      -3.43056965       0.00000000
Si      -0.65164887       3.04154567      -2.13412478       0.00000000
