10
Lattice="16.28999089631971 0.0 0.0 0.0 16.28999089631971 0.0 0.0 0.0 34.642051614445585" Properties=species:S:1:pos:R:3:initial_magmoms:R:1 pbc="T T T"
Si      -1.35773892      -1.35697166       1.35665278       0.00000000
Si       1.35808101       1.35747828       1.35731098       0.00000000
Si      -1.35883035       1.35738054      -1.35741491       0.00000000
Si       1.35946566      -1.35558864      -1.36091376       0.00000000
Si       2.71778161       0.00459378      -2.69604689       0.00000000
Si       2.71448871       0.00066789       2.71413698       0.00000000
Si      -0.00009774      -2.71426221       2.71444876       0.00000000
Si       2.71533682      -2.71363485       0.00024249       0.00000000
Si      -2.71502172       0.00068418       2.71437947       0.00000000
Si       0.00029322       2.71549413       2.71431019       0.00000000
