10
Lattice="16.28999089631971 0.0 0.0 0.0 16.28999089631971 0.0 0.0 0.0 34.642051614445585" Properties=species:S:1:pos:R:3:initial_magmoms:R:1 pbc="T T T"
Si      -1.27690794      -1.49319013       1.26544021       0.00000000
Si       1.56561561       1.40086425       1.08207973       0.00000000
Si       1.27767357      -1.43480677      -1.39299232       0.00000000
Si      -1.44050841       1.27322070      -1.39181449       0.00000000
Si      -0.08363286       2.63540353      -2.75737028       0.00000000
Si       2.62982797      -0.07571578      -2.76319015       0.00000000
Si      -2.76509718       2.62966945       0.04933031       0.00000000
Si      -1.13920857      -1.01169031       3.54138963       0.00000000
Si       2.56818366      -2.88750010       0.06349892       0.00000000
Si      -0.08146629      -2.79505435      -2.75976058       0.00000000
