10
Lattice="16.28999089631971 0.0 0.0 0.0 16.28999089631971 0.0 0.0 0.0 34.642051614445585" Properties=species:S:1:pos:R:3:initial_magmoms:R:1 pbc="T T T"
Si       0.89313672       1.73004687       1.29910884       0.00000000
Si      -1.78962333      -0.92295882       1.26848871       0.00000000
Si      -0.49847793       1.25509563      -2.01548751       0.00000000
Si       1.79193584      -1.71506007      -0.27108602       0.00000000
Si       2.25126497       0.43104969       2.62344750       0.00000000
Si      -0.45961940      -2.27660895       2.61236896       0.00000000
Si       1.50904370       2.60731224      -2.04129585       0.00000000
Si       2.27776880      -1.17481851      -2.73472618       0.00000000
Si       0.19762213      -0.18251316      -3.74461184       0.00000000
Si       3.51626492      -0.81596610       1.13192274       0.00000000
