10
Lattice="16.28999089631971 0.0 0.0 0.0 16.28999089631971 0.0 0.0 0.0 34.642051614445585" Properties=species:S:1:pos:R:3:initial_magmoms:R:1 pbc="T T T"
Si       1.24053237       1.67070240       1.11748393       0.00000000
Si      -0.93188574      -1.76796999       1.35945879       0.00000000
Si       1.67368347      -1.62816921      -0.66765663       0.00000000
Si      -1.84031388       1.06862400      -1.30108690       0.00000000
Si      -1.67534505      -2.95684025      -0.62480439       0.00000000
Si       2.85912536       2.26725849      -0.51959642       0.00000000
Si       0.45369279      -3.36015622      -1.63950529       0.00000000
Si       2.45350925       0.61652763       2.92929888       0.00000000
Si      -3.48874785       1.64760318       0.31964239       0.00000000
Si       0.88477506      -2.60614099       2.77389455       0.00000000
