10
Lattice="16.28999089631971 0.0 0.0 0.0 16.28999089631971 0.0 0.0 0.0 34.642051614445585" Properties=species:S:1:pos:R:3:initial_magmoms:R:1 pbc="T T T"
Si       1.78911671       0.02193286      -1.51621416       0.00000000
Si       0.35093547       1.76060854       1.51801555       0.00000000
Si       0.33379839      -1.81059019       1.51777306       0.00000000
Si      -1.81666080       0.83817100      -1.41443576       0.00000000
Si       2.05275896      -2.30546410      -1.79404357       0.00000000
Si       3.18242159       1.58241223      -0.42675567       0.00000000
Si       1.56873419       3.22266862       0.15540433       0.00000000
Si      -3.15783279       1.68971446       0.32303731       0.00000000
Si       1.14406299      -3.46216813       0.01118939       0.00000000
Si       0.78890841       0.97797178      -3.44155118       0.00000000
