10
Lattice="16.28999089631971 0.0 0.0 0.0 16.28999089631971 0.0 0.0 0.0 34.642051614445585" Properties=species:S:1:pos:R:3:initial_magmoms:R:1 pbc="T T T"
Si       0.48653343       1.58840861       1.58421655       0.00000000
Si      -1.95807429       0.50569865      -1.18642165       0.00000000
Si      -0.43173387      -2.18234913       0.76451586       0.00000000
Si       1.60130083       0.23812074      -1.75566016       0.00000000
Si      -1.46526921      -1.20442785      -2.81532647       0.00000000
Si       0.55687365       3.40988473       0.04403007       0.00000000
Si      -1.26908874      -3.05041065      -1.26395060       0.00000000
Si       1.75666377       2.59817032      -1.83634154       0.00000000
Si       2.53249620       0.44734624       2.64239325       0.00000000
Si       1.66581281      -3.15227202       1.29467812       0.00000000
