10
Lattice="16.28999089631971 0.0 0.0 0.0 16.28999089631971 0.0 0.0 0.0 34.642051614445585" Properties=species:S:1:pos:R:3:initial_magmoms:R:1 pbc="T T T"
Si      -1.35694071       1.35545832       1.36250729       0.00000000
Si       1.36226787      -1.36174626       1.36257658       0.00000000
Si       1.35369573       1.36013355      -1.37293109       0.00000000
Si      -1.37736837      -1.34956134      -1.36959160       0.00000000
Si       2.71525860      -0.06501339      -2.64655722       0.00000000
Si       0.03249855      -2.71801908      -2.67717735       0.00000000
Si      -2.71129131       2.71103067       0.00758661       0.00000000
Si       2.71759132       2.71235016       0.00353349       0.00000000
Si       0.00193851       2.71197549       2.71999149       0.00000000
Si      -2.71410948      -2.71888245       0.00533488       0.00000000
