10
Lattice="16.28999089631971 0.0 0.0 0.0 16.28999089631971 0.0 0.0 0.0 34.642051614445585" Properties=species:S:1:pos:R:3:initial_magmoms:R:1 pbc="T T T"
Si      -1.67122368      -1.17253791       1.21998981       0.00000000
Si      -1.50241041       1.20156669      -1.41266901       0.00000000
Si       1.21880151      -1.50933366      -1.40802697       0.00000000
Si       1.44116001       1.11967686       1.68949380       0.00000000
Si      -2.82527244       2.37415347       0.18779467       0.00000000
Si      -0.46208214      -1.66785165       3.31483049       0.00000000
Si      -0.15293052       2.54741391      -2.78390611       0.00000000
Si       2.55720733      -0.16700508      -2.78567285       0.00000000
Si      -3.54429675       0.40708710       1.34529018       0.00000000
Si       2.80988395       2.56285683       0.28794489       0.00000000
