10
Lattice="16.28999089631971 0.0 0.0 0.0 16.28999089631971 0.0 0.0 0.0 34.642051614445585" Properties=species:S:1:pos:R:3:initial_magmoms:R:1 pbc="T T T"
Si      -1.66057002      -0.57679632       1.52026728       0.00000000
Si       1.25390646       1.33626870       1.47356977       0.00000000
Si      -1.39670460       1.51907508      -1.19781889       0.00000000
Si       1.26164421      -1.96884198      -0.67042800       0.00000000
Si       2.73291044       2.14581654      -0.21142056       0.00000000
Si      -0.38460690      -1.46126187       3.22888351       0.00000000
Si       1.70683362      -0.24659802       3.17792502       0.00000000
Si      -2.42302347       1.61150454       2.17185000       0.00000000
Si      -0.29597301       2.70632286       2.64402143       0.00000000
Si      -3.28893471       0.33236487      -1.89311989       0.00000000
