10
Lattice="16.28999089631971 0.0 0.0 0.0 16.28999089631971 0.0 0.0 0.0 34.642051614445585" Properties=species:S:1:pos:R:3:initial_magmoms:R:1 pbc="T T T"
Si      -1.31098662       1.32963867       1.49958250       0.00000000
Si       0.83430864       1.82237859      -1.33088744       0.00000000
Si      -1.65921795      -1.13896422      -1.33279275       0.00000000
Si       1.38513543      -1.36425492       1.47382266       0.00000000
Si      -3.35271006       0.75048030      -1.36123389       0.00000000
Si      -2.65132782       2.62089810       0.11491468       0.00000000
Si       2.66583799       2.67072921      -0.00162471       0.00000000
Si      -2.67985161      -0.01335780       2.85434037       0.00000000
Si       2.74669830      -2.78940186       0.20019653       0.00000000
Si       0.03407868       2.70143586       2.84914406       0.00000000
