10
Lattice="16.28999089631971 0.0 0.0 0.0 16.28999089631971 0.0 0.0 0.0 34.642051614445585" Properties=species:S:1:pos:R:3:initial_magmoms:R:1 pbc="T T T"
Si      -2.00997423       1.10897433       0.52271421       0.00000000
Si       1.82796606       1.49113773      -0.28707884       0.00000000
Si      -0.71037432      -1.88555121      -1.33174513       0.00000000
Si       0.69576219      -1.03112442       2.22322419       0.00000000
Si       3.40788659       0.07837119      -1.38433180       0.00000000
Si      -0.50950233      -3.08822562       2.11330490       0.00000000
Si      -3.61765062      -0.65500461       0.92591327       0.00000000
Si      -0.05408280      -3.80338920      -0.10091235       0.00000000
Si       0.47029230      -2.12574726      -3.29484201       0.00000000
Si       1.52062263       3.10068747      -2.00047567       0.00000000
