10
Lattice="16.28999089631971 0.0 0.0 0.0 16.28999089631971 0.0 0.0 0.0 34.642051614445585" Properties=species:S:1:pos:R:3:initial_magmoms:R:1 pbc="T T T"
Si      -1.28896254       1.30955310       1.51070607       0.00000000
Si      -0.92429460      -1.80737550      -1.27144857       0.00000000
Si       1.12109409       1.79929796      -1.17909281       0.00000000
Si       1.44839193      -1.38688173       1.50260329       0.00000000
Si      -0.68755203       3.50043497      -0.97964659       0.00000000
Si      -2.72699487       2.68905776       0.11990660       0.00000000
Si      -2.59012629      -2.83879314       0.15332581       0.00000000
Si      -2.61777042      -0.04184901       2.88772839       0.00000000
Si       2.72703952      -2.78896203       0.03678642       0.00000000
Si       0.09682776       2.67405956       2.88700091       0.00000000
