10
Lattice="16.28999089631971 0.0 0.0 0.0 16.28999089631971 0.0 0.0 0.0 34.642051614445585" Properties=species:S:1:pos:R:3:initial_magmoms:R:1 pbc="T T T"
Si      -1.98490392      -0.65503719       1.00534754       0.00000000
Si       0.81026460      -1.65157794      -1.50658367       0.00000000
Si      -0.33379839       1.81059019      -1.51777306       0.00000000
Si       1.08166612       0.78751140       2.06501385       0.00000000
Si       0.01713708       3.57119873       0.00024249       0.00000000
Si       1.71896057      -0.49487391      -3.31181663       0.00000000
Si      -2.47770900       1.05508931       2.63425236       0.00000000
Si       2.39160562      -2.95766127      -0.42045082       0.00000000
Si       1.45531832       1.83252304      -3.03398722       0.00000000
Si      -3.36085506      -1.78882119      -0.52926156       0.00000000
