10
Lattice="16.28999089631971 0.0 0.0 0.0 16.28999089631971 0.0 0.0 0.0 34.642051614445585" Properties=species:S:1:pos:R:3:initial_magmoms:R:1 pbc="T T T"
Si      -1.03934924      -1.91824524      -0.87550906       0.00000000
Si       1.07181684      -0.46802799       2.10568364       0.00000000
Si       1.36699164       0.46187037      -1.95703452       0.00000000
Si      -1.77056499       1.62388494       0.50400749       0.00000000
Si       1.28003562       2.89103517      -1.79175719       0.00000000
Si      -2.95600688      -2.27154276       0.35594728       0.00000000
Si      -1.91186119      -1.20733335      -3.00357148       0.00000000
Si      -0.56249370      -1.66710231       3.37074279       0.00000000
Si      -0.64200519       3.36103425       1.70030213       0.00000000
Si       0.71651565      -3.59396496      -1.09347697       0.00000000
