10
Lattice="16.28999089631971 0.0 0.0 0.0 16.28999089631971 0.0 0.0 0.0 34.642051614445585" Properties=species:S:1:pos:R:3:initial_magmoms:R:1 pbc="T T T"
Si      -1.37459092      -1.28927205       1.37497844       0.00000000
Si       1.72116882      -1.45026612      -0.66180212       0.00000000
Si      -0.94669335       0.47224710      -2.13904396       0.00000000
Si       0.31455990       2.08081944       1.18801518       0.00000000
Si      -2.22257991       2.25320022      -1.23925080       0.00000000
Si       2.84633541      -0.19458405      -2.32940214       0.00000000
Si       0.99303840       0.94591143      -3.43341030       0.00000000
Si       0.01422117      -1.84182885       3.20820219       0.00000000
Si      -0.60238791       3.64211820      -0.29078554       0.00000000
Si       3.18414114      -1.77973137       1.16064795       0.00000000
