10
Lattice="16.28999089631971 0.0 0.0 0.0 16.28999089631971 0.0 0.0 0.0 34.642051614445585" Properties=species:S:1:pos:R:3:initial_magmoms:R:1 pbc="T T T"
Si      -1.12480821       0.93330297       1.85265796       0.00000000
Si      -1.38881210       0.55255680      -1.83322375       0.00000000
Si      -0.14011029      -2.36335320       0.21571618       0.00000000
Si       2.19704859       0.93064770      -0.10524261       0.00000000
Si      -0.01422117       1.84182885      -3.20820219       0.00000000
Si      -2.41672413       2.69206911       0.90336128       0.00000000
Si       3.16991997       0.06209748      -2.04755425       0.00000000
Si      -3.26287790       1.70261451      -1.05810742       0.00000000
Si       0.96822873      -2.89300626       2.31557995       0.00000000
Si      -2.13406656      -0.74899791       3.14543076       0.00000000
