10
Lattice="16.28999089631971 0.0 0.0 0.0 16.28999089631971 0.0 0.0 0.0 34.642051614445585" Properties=species:S:1:pos:R:3:initial_magmoms:R:1 pbc="T T T"
Si       1.36156287      -1.42514694      -1.27362613       0.00000000
Si      -1.35369573      -1.36013355       1.37293109       0.00000000
Si       1.36389560       1.35221661       1.37646458       0.00000000
Si      -1.38513543       1.36425492      -1.47382266       0.00000000
Si      -2.69612205       2.69389359       0.02575984       0.00000000
Si       2.69040170       2.71551042       0.01125521       0.00000000
Si      -2.73106410      -2.70969489       0.00333950       0.00000000
Si       2.71969112      -2.72414412       0.05071253       0.00000000
Si       0.00536573       2.70902700       2.73561160       0.00000000
Si      -2.71063644      -0.00467523       2.73543839       0.00000000
