10
Lattice="16.28999089631971 0.0 0.0 0.0 16.28999089631971 0.0 0.0 0.0 34.642051614445585" Properties=species:S:1:pos:R:3:initial_magmoms:R:1 pbc="T T T"
Si      -1.36872394      -1.44317997       1.40154891       0.00000000
Si       1.09590975      -1.35769005      -1.69870859       0.00000000
Si       1.92772765       0.87931791       1.23138705       0.00000000
Si      -1.59629524       1.33239168      -1.67750764       0.00000000
Si       2.42359525       2.58118308      -0.36259856       0.00000000
Si       2.63314981      -2.56140702      -0.41023140       0.00000000
Si      -2.59031104       0.30944484       2.71036099       0.00000000
Si      -2.80988395      -2.56285683      -0.28794489       0.00000000
Si       3.53753803      -1.00466946       1.21919305       0.00000000
Si      -1.27054411       2.28806082       2.91921804       0.00000000
