10
Lattice="16.28999089631971 0.0 0.0 0.0 16.28999089631971 0.0 0.0 0.0 34.642051614445585" Properties=species:S:1:pos:R:3:initial_magmoms:R:1 pbc="T T T"
Si      -0.72181153       1.74131955       1.34626016       0.00000000
Si      -1.62019200      -1.38891798      -0.94846526       0.00000000
Si       0.91694781      -1.56129876       1.47880073       0.00000000
Si       1.39792635       0.98948718      -1.61930897       0.00000000
Si       1.35325917       2.85746148       1.65433210       0.00000000
Si       2.97347886      -0.62436312       2.06844342       0.00000000
Si      -0.34430544      -3.16987110      -1.84825841       0.00000000
Si      -2.75495570      -0.06470388      -2.46402122       0.00000000
Si       0.60238791      -3.64211820       0.29078554       0.00000000
Si       1.20471066      -0.33391242      -3.50955357       0.00000000
