10
Lattice="16.28999089631971 0.0 0.0 0.0 16.28999089631971 0.0 0.0 0.0 34.642051614445585" Properties=species:S:1:pos:R:3:initial_magmoms:R:1 pbc="T T T"
Si       0.69192101       0.93141333      -2.02673436       0.00000000
Si       0.84380082       1.48330224       1.63593716       0.00000000
Si      -2.27364647      -0.57946788       0.41321062       0.00000000
Si       1.20391734      -2.07427086       0.21426121       0.00000000
Si       2.90195436       0.47736216       2.02895145       0.00000000
Si      -1.96630304      -2.18901762       2.12660745       0.00000000
Si       1.41373254      -0.80990622      -3.37299452       0.00000000
Si      -0.38638251      -3.60178416       1.02935450       0.00000000
Si       2.43918804      -1.80050112       2.24633045       0.00000000
Si      -0.55350651       1.28619324       3.50906858       0.00000000
