10
Lattice="16.28999089631971 0.0 0.0 0.0 16.28999089631971 0.0 0.0 0.0 34.642051614445585" Properties=species:S:1:pos:R:3:initial_magmoms:R:1 pbc="T T T"
Si       1.18493460       1.83708587       0.91084397       0.00000000
Si       1.60998957      -1.07756721      -1.42884686       0.00000000
Si      -1.08194596       1.61476484      -1.42746118       0.00000000
Si      -1.21550930      -1.69140699       1.89526770       0.00000000
Si      -2.49902351      -2.53475658       0.03931875       0.00000000
Si       2.64324798       0.60389215       2.35961002       0.00000000
Si      -2.43737920       0.27702774      -2.78737031       0.00000000
Si       0.28338084      -2.44097505      -2.78667747       0.00000000
Si       2.97272952      -2.44025829      -0.16846439       0.00000000
Si      -2.14567482       3.22091486      -0.08400702       0.00000000
