10
Lattice="16.28999089631971 0.0 0.0 0.0 16.28999089631971 0.0 0.0 0.0 34.642051614445585" Properties=species:S:1:pos:R:3:initial_magmoms:R:1 pbc="T T T"
Si       1.37969784      -1.06231977      -1.64293486       0.00000000
Si      -1.83369851       1.27824372      -0.96779554       0.00000000
Si      -0.25643718      -2.42294202       0.41424988       0.00000000
Si       1.28831094       0.64622430       2.03355885       0.00000000
Si      -3.32357444       1.24698321       1.04771479       0.00000000
Si      -0.38151180      -2.30573547      -2.94090397       0.00000000
Si       2.00785653      -1.40035356       2.98912574       0.00000000
Si       2.35454031       0.52939242      -3.03152763       0.00000000
Si      -2.24351256       0.72197280       3.14889497       0.00000000
Si      -0.16187373       1.82322567       3.52157437       0.00000000
