10
Lattice="16.28999089631971 0.0 0.0 0.0 16.28999089631971 0.0 0.0 0.0 34.642051614445585" Properties=species:S:1:pos:R:3:initial_magmoms:R:1 pbc="T T T"
Si      -1.28351421      -0.84334959      -1.85594895       0.00000000
Si       1.83369851      -1.27824372       0.96779554       0.00000000
Si      -1.48987593      -0.03126051       2.01551033       0.00000000
Si       1.21550930       1.69140699      -1.89526770       0.00000000
Si      -2.64131829      -2.33696340      -0.57516230       0.00000000
Si       0.12946477      -2.11284558      -3.31074272       0.00000000
Si       3.21339635      -2.34056349      -0.67513932       0.00000000
Si      -0.40981405      -0.55627092       4.11669050       0.00000000
Si      -2.28608226       3.44501476      -0.83736814       0.00000000
Si      -2.93786145       1.89141561       2.39626133       0.00000000
