10
Lattice="10.86 0.0 0.0 0.0 10.86 0.0 0.0 0.0 10.86" Properties=species:S:1:pos:R:3:initial_magmoms:R:1 pbc="T T T"
Si      -1.50316518      -1.14801060       1.20026892       0.00000000
Si       1.21183482      -1.14801060      -1.51473108       0.00000000
Si       1.21183482       1.56698940       1.20026892       0.00000000
Si      -1.04886966       1.54752828      -1.38234768       0.00000000
Si      -0.14566518      -2.50551060       2.55776892       0.00000000
Si       2.56933482      -2.50551060      -0.15723108       0.00000000
Si       2.56933482       0.20948940       2.55776892       0.00000000
Si      -2.86066518      -2.50551060      -0.15723108       0.00000000
Si      -0.14566518      -2.50551060      -2.87223108       0.00000000
Si      -2.86066518       0.20948940       2.55776892       0.00000000
