10
Lattice="16.28999089631971 0.0 0.0 0.0 16.28999089631971 0.0 0.0 0.0 34.54679606040008" Properties=species:S:1:pos:R:3:initial_magmoms:R:1 pbc="T T T"
Si      -1.85445360      -1.29495726      -0.61064951       0.00000000
Si      -0.17190837       1.76604777      -1.57378017       0.00000000
Si      -0.69555042       0.75709404       2.25248691       0.00000000
Si       2.19900339      -1.24452342       0.03551413       0.00000000
Si       2.23821342       1.95390635      -1.56980729       0.00000000
Si       0.59437323      -0.73415772       3.53286098       0.00000000
Si      -1.93285737      -2.91991734       1.06262549       0.00000000
Si       0.00477297      -2.77026111       2.42947024       0.00000000
Si      -3.80305330       0.09933642      -0.53202096       0.00000000
Si       3.58542900       0.04263093       1.41821586       0.00000000
