10
Lattice="16.28999089631971 0.0 0.0 0.0 16.28999089631971 0.0 0.0 0.0 34.54679606040008" Properties=species:S:1:pos:R:3:initial_magmoms:R:1 pbc="T T T"
Si       1.79882325       1.04499535      -1.10687167       0.00000000
Si      -1.21487562       1.45397210       1.41782549       0.00000000
Si       1.48779828      -1.27363593       1.37767863       0.00000000
Si      -1.71940950      -1.18556584      -1.24323763       0.00000000
Si       0.74942145       1.64371801      -3.13790939       0.00000000
Si      -3.30056577       0.83451226      -1.34140590       0.00000000
Si      -2.61799848       2.70701518       0.06417762       0.00000000
Si      -2.57727348       0.09915071       2.76816031       0.00000000
Si       0.13774824      -2.61464178       2.77068223       0.00000000
Si       0.13779711       2.81433371       2.77216774       0.00000000
