10
Lattice="16.28999089631971 0.0 0.0 0.0 16.28999089631971 0.0 0.0 0.0 34.54679606040008" Properties=species:S:1:pos:R:3:initial_magmoms:R:1 pbc="T T T"
Si       1.35666378      -1.35246585      -1.36003903       0.00000000
Si       1.37700999       1.33623612       1.36294096       0.00000000
Si      -1.36142046       1.36080144      -1.35965901       0.00000000
Si      -1.36159965      -1.34999465       1.38553458       0.00000000
Si       2.71358820      -2.71020606      -0.00038001       0.00000000
Si      -2.71904535      -2.70835001       0.00283284       0.00000000
Si      -0.00241092      -2.71122398      -2.71662337       0.00000000
Si       2.71318095       0.00386073      -2.71669247       0.00000000
Si       2.71489140       2.71788876       0.00027637       0.00000000
Si      -2.71616202       2.71673217      -0.00193462       0.00000000
