10
Lattice="16.28999089631971 0.0 0.0 0.0 16.28999089631971 0.0 0.0 0.0 34.54679606040008" Properties=species:S:1:pos:R:3:initial_magmoms:R:1 pbc="T T T"
Si      -0.68598819       1.93620008       1.20982947       0.00000000
Si       1.19327508      -1.28129388       1.67755881       0.00000000
Si       1.99741464      -1.04360256      -0.98188959       0.00000000
Si      -2.29819320      -0.96034274       0.06926636       0.00000000
Si       0.90127683       2.07502346      -1.34335292       0.00000000
Si       3.19798764       1.13370581      -1.13990672       0.00000000
Si      -2.40396417       2.67364838      -0.24566240       0.00000000
Si      -0.61152660      -2.40820350       2.67589268       0.00000000
Si      -1.97281674       0.98602067       2.97199343       0.00000000
Si      -2.66225841      -1.18139951       2.46864633       0.00000000
