10
Lattice="16.28999089631971 0.0 0.0 0.0 16.28999089631971 0.0 0.0 0.0 34.54679606040008" Properties=species:S:1:pos:R:3:initial_magmoms:R:1 pbc="T T T"
Si      -1.71797598       0.73744830      -1.45549188       0.00000000
Si      -1.28682855      -0.95017941       1.76216396       0.00000000
Si       0.68598819      -1.93620008      -1.20982947       0.00000000
Si       0.76937670       2.23635636      -0.60622752       0.00000000
Si       1.57519413       1.20295134       1.49048780       0.00000000
Si       1.58726502       0.13882338      -2.55318239       0.00000000
Si      -1.61220501      -2.89654282      -1.14056311       0.00000000
Si      -2.82093930       0.69276483       2.22353668       0.00000000
Si      -3.40368147       1.34750880       0.08830166       0.00000000
Si       2.10673683      -0.49705677       3.04575088       0.00000000
