10
Lattice="16.28999089631971 0.0 0.0 0.0 16.28999089631971 0.0 0.0 0.0 34.54679606040008" Properties=species:S:1:pos:R:3:initial_magmoms:R:1 pbc="T T T"
Si       1.34491869      -1.28677968       1.44343504       0.00000000
Si      -1.72361232      -1.09776681      -1.21751130       0.00000000
Si       1.75718601       0.71100963      -1.50812192       0.00000000
Si      -1.34763912       1.44181161       1.41815023       0.00000000
Si       2.71880100      -2.58696603       0.02991063       0.00000000
Si      -3.53509290       0.53766774      -1.33846251       0.00000000
Si      -2.79155214       2.61529434      -0.10529178       0.00000000
Si       0.00081450      -2.63775825       2.80813789       0.00000000
Si       0.13121595      -0.17161515      -3.87461332       0.00000000
Si      -2.75498109      -2.74507677       0.10014776       0.00000000
