10
Lattice="16.28999089631971 0.0 0.0 0.0 16.28999089631971 0.0 0.0 0.0 34.54679606040008" Properties=species:S:1:pos:R:3:initial_magmoms:R:1 pbc="T T T"
Si       1.35622395       1.35570267      -1.35737892       0.00000000
Si      -1.35840681      -1.35865116      -1.35710255       0.00000000
Si      -1.36052451       1.35630540       1.35893353       0.00000000
Si       1.35760860      -1.36130643       1.35748256       0.00000000
Si       2.71370223       2.71409319      -0.00024183       0.00000000
Si      -0.00091224       2.71324611      -2.71496513       0.00000000
Si      -2.71470569       2.71393029      -0.00110550       0.00000000
Si       2.71402803      -0.00156384      -2.71499967       0.00000000
Si       2.71235016      -2.71723716      -0.00024183       0.00000000
Si      -2.71599260      -0.00187335      -2.71482694       0.00000000
