10
Lattice="16.28999089631971 0.0 0.0 0.0 16.28999089631971 0.0 0.0 0.0 34.54679606040008" Properties=species:S:1:pos:R:3:initial_magmoms:R:1 pbc="T T T"
Si       1.35474156      -1.35593073      -1.35772439       0.00000000
Si      -1.35760860       1.36130643      -1.35748256       0.00000000
Si       1.34493498       1.36990755       1.37413413       0.00000000
Si      -1.37323071      -1.33967331       1.38125077       0.00000000
Si       0.07724718      -2.54974338       2.79583922       0.00000000
Si      -2.71425609      -2.71226871       0.00490565       0.00000000
Si       2.70995553       2.71718829       0.00328195       0.00000000
Si      -0.00123804      -2.71267596      -2.71513786       0.00000000
Si       2.71318095       0.00265527      -2.71493058       0.00000000
Si      -2.71601541       0.00265527      -2.71458511       0.00000000
