10
Lattice="16.28999089631971 0.0 0.0 0.0 16.28999089631971 0.0 0.0 0.0 34.54679606040008" Properties=species:S:1:pos:R:3:initial_magmoms:R:1 pbc="T T T"
Si       0.32407326      -2.08940427       1.04324473       0.00000000
Si      -0.62661114       0.52279497       2.36783873       0.00000000
Si      -1.52104617      -1.77347601      -1.15365635       0.00000000
Si       3.00161169       1.14153804      -0.05026562       0.00000000
Si      -3.10000329       1.31377221      -0.36008146       0.00000000
Si      -0.36160542       1.82188989      -2.83888455       0.00000000
Si       2.15270721      -1.42473969      -2.20539960       0.00000000
Si       0.56207016       3.39483600      -0.74064917       0.00000000
Si      -3.00180717       0.74859066       1.97365956       0.00000000
Si      -1.80665874       3.06019053      -1.39976787       0.00000000
