10
Lattice="16.28999089631971 0.0 0.0 0.0 16.28999089631971 0.0 0.0 0.0 34.54679606040008" Properties=species:S:1:pos:R:3:initial_magmoms:R:1 pbc="T T T"
Si       1.26213291       0.97098174       1.70177612       0.00000000
Si       0.77134779      -2.17870605      -0.37586935       0.00000000
Si      -2.15752905      -0.49146930       0.96720719       0.00000000
Si       0.73295226       1.44958194      -1.80438017       0.00000000
Si      -0.04970079      -3.25058805       1.60646146       0.00000000
Si       1.13570622       3.30348168       1.02030565       0.00000000
Si      -3.26974509      -1.69862346      -0.64578362       0.00000000
Si      -1.10066643       2.84907213      -2.16594714       0.00000000
Si       3.45861135       0.09585036       1.50371923       0.00000000
Si      -0.40461102      -3.07898919      -2.21590183       0.00000000
