10
Lattice="16.28999089631971 0.0 0.0 0.0 16.28999089631971 0.0 0.0 0.0 34.54679606040008" Properties=species:S:1:pos:R:3:initial_magmoms:R:1 pbc="T T T"
Si      -1.35089712      -1.35508365       1.40215505       0.00000000
Si       1.36440153       1.36049193       1.40488425       0.00000000
Si       1.45642374      -1.37762901      -1.50487655       0.00000000
Si      -1.39813812       1.42513065      -1.58272780       0.00000000
Si      -2.69702127      -2.70775638       0.01665847       0.00000000
Si      -2.69894349       2.71474479       0.02462842       0.00000000
Si       2.70920619       2.71151937       0.03592523       0.00000000
Si       2.73333168      -2.70977634       0.01860346       0.00000000
Si      -2.70865233       0.00104256       2.76388687       0.00000000
Si       0.00604359      -2.71327869       2.76367959       0.00000000
