10
Lattice="16.28999089631971 0.0 0.0 0.0 16.28999089631971 0.0 0.0 0.0 34.54679606040008" Properties=species:S:1:pos:R:3:initial_magmoms:R:1 pbc="T T T"
Si      -1.35190710       1.35480672       1.35865715       0.00000000
Si       1.35747828       1.35741312      -1.35744802       0.00000000
Si      -1.35747828      -1.35839052      -1.35713709       0.00000000
Si       1.35386190      -1.35821133       1.36100634       0.00000000
Si       0.01081656       2.69939961       2.72374002       0.00000000
Si      -2.71370223      -2.71409319       0.00024183       0.00000000
Si       2.71443528       2.71454931       0.00089822       0.00000000
Si       0.00045612       2.71437012      -2.71461966       0.00000000
Si      -2.71549413       2.71350675       0.00010364       0.00000000
Si      -2.71461447      -0.00084708      -2.71472330       0.00000000
