10
Lattice="16.28999089631971 0.0 0.0 0.0 16.28999089631971 0.0 0.0 0.0 34.54679606040008" Properties=species:S:1:pos:R:3:initial_magmoms:R:1 pbc="T T T"
Si       1.21793814      -1.39688379       1.41375933       0.00000000
Si      -1.34586351      -1.36770840      -1.35720619       0.00000000
Si       1.37645613       1.34488611      -1.35772439       0.00000000
Si      -1.37709144       1.33151202       1.42958177       0.00000000
Si      -2.70004469      -0.01008351      -2.71724522       0.00000000
Si      -2.69098094      -2.72666907       0.01406055       0.00000000
Si       0.01286910       2.70358614      -2.71627791       0.00000000
Si      -2.71334874       2.71510317       0.03326858       0.00000000
Si       2.73917979       2.68947900       0.00735847       0.00000000
Si       2.71720458      -2.71541268       0.01547697       0.00000000
