10
Lattice="16.28999089631971 0.0 0.0 0.0 16.28999089631971 0.0 0.0 0.0 34.54679606040008" Properties=species:S:1:pos:R:3:initial_magmoms:R:1 pbc="T T T"
Si       1.35571896       1.35624024      -1.35672253       0.00000000
Si       1.35702216      -1.35695700       1.35717164       0.00000000
Si      -1.35762489       1.35759231       1.35734438       0.00000000
Si      -1.35790182      -1.35783666      -1.35699891       0.00000000
Si       0.00060273       2.71381626       2.71451602       0.00000000
Si      -0.00045612      -2.71437012       2.71461966       0.00000000
Si       2.71459818      -2.71458189      -0.00003455       0.00000000
Si       2.71420722       2.71505430      -0.00034547       0.00000000
Si      -2.71090035      -0.00451233      -2.71841981       0.00000000
Si       2.71397916       0.00017919       2.71551788       0.00000000
