10
Lattice="16.28999089631971 0.0 0.0 0.0 16.28999089631971 0.0 0.0 0.0 34.54679606040008" Properties=species:S:1:pos:R:3:initial_magmoms:R:1 pbc="T T T"
Si       1.35791811       1.34982198       1.36671693       0.00000000
Si      -1.35972630      -1.36394541       1.36239857       0.00000000
Si       1.38052863      -1.39029774      -1.32880180       0.00000000
Si      -1.35296595       1.40084226      -1.40909205       0.00000000
Si      -2.40992631      -0.41928831      -2.50990421       0.00000000
Si       2.48008734       0.00358380      -2.78105806       0.00000000
Si       2.72419299       2.69952993      -0.02564410       0.00000000
Si      -2.72684826       2.70102861       0.00443236       0.00000000
Si      -0.00073305       2.70785412       2.72482133       0.00000000
Si       2.71489140      -0.00547344       2.72661777       0.00000000
