10
Lattice="16.28999089631971 0.0 0.0 0.0 16.28999089631971 0.0 0.0 0.0 34.54679606040008" Properties=species:S:1:pos:R:3:initial_magmoms:R:1 pbc="T T T"
Si      -0.45722772      -0.25527733       2.30831456       0.00000000
Si       1.89512973      -1.47308908      -0.08477788       0.00000000
Si      -2.00261115      -0.68045026      -1.14954528       0.00000000
Si       0.78568299       2.09247331      -1.09665411       0.00000000
Si       0.74334528       1.92203104       2.15029743       0.00000000
Si      -0.52979967      -1.82187427      -2.59584771       0.00000000
Si       0.67662144      -3.21093886      -1.17023882       0.00000000
Si       2.20206591       0.90140878      -2.58503455       0.00000000
Si      -1.55336553       2.86334869       1.94685123       0.00000000
Si       3.62506257      -0.30649537      -1.13845575       0.00000000
