10
Lattice="16.28999089631971 0.0 0.0 0.0 16.28999089631971 0.0 0.0 0.0 34.54679606040008" Properties=species:S:1:pos:R:3:initial_magmoms:R:1 pbc="T T T"
Si      -1.51500258      -1.32113433      -1.20057093       0.00000000
Si      -1.28752902       1.39930285       1.37745062       0.00000000
Si       1.08062973       1.30462538      -1.69852872       0.00000000
Si       1.26993582      -1.15257223       1.67793882       0.00000000
Si       0.17760987      -2.61969168      -2.28095348       0.00000000
Si      -1.81907172       3.09931096      -0.17781246       0.00000000
Si      -0.46152828      -2.02807146       3.03148305       0.00000000
Si       0.36341361       3.51468967      -1.10149066       0.00000000
Si      -0.18164979       1.54822604       3.40714512       0.00000000
Si       1.97079678       0.57364420       3.16739022       0.00000000
