10
Lattice="16.28999089631971 0.0 0.0 0.0 16.28999089631971 0.0 0.0 0.0 34.54679606040008" Properties=species:S:1:pos:R:3:initial_magmoms:R:1 pbc="T T T"
Si      -1.08062973      -1.30462538       1.69852872       0.00000000
Si      -0.71721612       2.21006430       0.59703806       0.00000000
Si      -0.59091975      -0.21076002      -2.31950773       0.00000000
Si       2.36646459      -0.40500198       0.13089788       0.00000000
Si      -1.79149275      -2.38806839      -2.16149060       0.00000000
Si      -2.59563231      -2.62575971       0.49795780       0.00000000
Si      -2.89970145       1.79468559       1.52071627       0.00000000
Si       2.54990628      -2.68196021       0.59997454       0.00000000
Si      -2.36815875       0.09467748       3.07597935       0.00000000
Si      -2.88763056       0.73055763      -2.52295393       0.00000000
