10
Lattice="16.28999089631971 0.0 0.0 0.0 16.28999089631971 0.0 0.0 0.0 34.54679606040008" Properties=species:S:1:pos:R:3:initial_magmoms:R:1 pbc="T T T"
Si      -0.48099483       1.93842855       1.14999439       0.00000000
Si      -1.10587923      -0.14892318      -2.02969450       0.00000000
Si      -0.88840773      -1.84154540       1.19435250       0.00000000
Si       2.15244657      -0.97458183      -0.23975490       0.00000000
Si       1.45158561      -2.70079827      -1.72920630       0.00000000
Si      -3.24459333      -0.72526338      -1.37385775       0.00000000
Si      -0.27987849      -3.57629750      -0.37566207       0.00000000
Si       2.43799398      -1.71215719       2.04410052       0.00000000
Si       0.37587546      -1.77824572       3.16939394       0.00000000
Si       0.18164979      -1.54822604      -3.40714512       0.00000000
