10
Lattice="16.28999089631971 0.0 0.0 0.0 16.28999089631971 0.0 0.0 0.0 34.54679606040008" Properties=species:S:1:pos:R:3:initial_magmoms:R:1 pbc="T T T"
Si      -1.14497523      -0.12326643      -1.97998163       0.00000000
Si      -0.73790442       2.23879986       0.47643513       0.00000000
Si      -0.55750896      -1.89913707       1.37430686       0.00000000
Si       2.28998304      -0.00066789      -0.78704555       0.00000000
Si       0.97184511      -1.33525872       3.10755514       0.00000000
Si      -0.41609547       1.77152121      -3.15011681       0.00000000
Si      -3.42516798      -0.03575655      -1.40315345       0.00000000
Si      -0.09762597       3.41268984      -1.44771884       0.00000000
Si       0.12069261       2.69074962       2.58213262       0.00000000
Si       3.09086460      -2.10730698      -0.05717498       0.00000000
