10
Lattice="16.28999089631971 0.0 0.0 0.0 16.28999089631971 0.0 0.0 0.0 34.54679606040008" Properties=species:S:1:pos:R:3:initial_magmoms:R:1 pbc="T T T"
Si       1.34856765       1.34788347      -1.36643019       0.00000000
Si      -1.22245047       1.42333875       1.41583213       0.00000000
Si      -1.37137365      -1.36469475      -1.36273368       0.00000000
Si       1.50961059      -1.22966694       1.39344580       0.00000000
Si      -2.55430458      -0.17598087       2.59094206       0.00000000
Si       2.68229511       2.71586880       0.00221100       0.00000000
Si      -2.71441899       2.69291619       0.00000000       0.00000000
Si       2.70141957      -2.71985985       0.00469837       0.00000000
Si       2.70391194      -0.00733050      -2.72422367       0.00000000
Si      -0.01080027       2.70806589      -2.72284180       0.00000000
