10
Lattice="16.28999089631971 0.0 0.0 0.0 16.28999089631971 0.0 0.0 0.0 34.54679606040008" Properties=species:S:1:pos:R:3:initial_magmoms:R:1 pbc="T T T"
Si       1.35796698       1.35705443      -1.35675708       0.00000000
Si      -1.35715248      -1.35821133      -1.35720619       0.00000000
Si      -1.35584928       1.35749557       1.35958992       0.00000000
Si       1.35433431      -1.35641943       1.36629200       0.00000000
Si       2.71337643       2.71431540      -0.00069094       0.00000000
Si      -2.71277370       2.71523579      -0.00006909       0.00000000
Si       0.00097740       2.71432518      -2.71458511       0.00000000
Si       2.71515204       0.00004887      -2.71413600       0.00000000
Si      -2.71484253      -0.00073305      -2.71465420       0.00000000
Si       0.00003258      -2.71586880      -2.71410146       0.00000000
