10
Lattice="16.28999089631971 0.0 0.0 0.0 16.28999089631971 0.0 0.0 0.0 34.54679606040008" Properties=species:S:1:pos:R:3:initial_magmoms:R:1 pbc="T T T"
Si       0.02127474       1.92413637      -1.39413673       0.00000000
Si      -0.72514935      -1.64400309      -1.64201013       0.00000000
Si      -2.04529095       0.01721853       1.34494207       0.00000000
Si       2.41671924      -0.05846481       0.54518329       0.00000000
Si       3.04653951      -0.02792106      -1.73887940       0.00000000
Si      -2.97419562      -0.91217484      -1.98005072       0.00000000
Si       2.08339326       1.99022490      -2.51943015       0.00000000
Si      -3.58588512      -1.43674542       0.18520548       0.00000000
Si      -0.24812928       3.86494001      -0.05924779       0.00000000
Si      -1.24300845       1.86083669      -3.36917817       0.00000000
