10
Lattice="16.28999089631971 0.0 0.0 0.0 16.28999089631971 0.0 0.0 0.0 34.54679606040008" Properties=species:S:1:pos:R:3:initial_magmoms:R:1 pbc="T T T"
Si      -1.22919453       1.36132272      -1.40671177       0.00000000
Si       0.76081698       1.75518234       1.34124556       0.00000000
Si      -1.83760974      -0.69253677       1.41020100       0.00000000
Si       1.48657394      -1.35639011      -1.35392424       0.00000000
Si      -2.51568099      -2.55013988       0.06021510       0.00000000
Si      -2.70006750       2.53697202      -0.03465046       0.00000000
Si      -2.58092244       0.01122381      -2.75134292       0.00000000
Si      -0.91124631       3.47776839       1.22665377       0.00000000
Si       2.70549926      -2.72408615       0.27906917       0.00000000
Si       0.13256802      -2.70463501      -2.74432992       0.00000000
