10
Lattice="16.28999089631971 0.0 0.0 0.0 16.28999089631971 0.0 0.0 0.0 34.54679606040008" Properties=species:S:1:pos:R:3:initial_magmoms:R:1 pbc="T T T"
Si      -0.14279814      -0.06498081       2.34711064       0.00000000
Si      -1.75332528       1.36497168      -0.80262616       0.00000000
Si      -0.27997623      -2.12059052      -1.01733462       0.00000000
Si       2.91137228       0.19922670       0.34837009       0.00000000
Si       1.89876796       0.95356773       2.47348289       0.00000000
Si       2.47841666       1.51187490      -1.60024303       0.00000000
Si       1.15121008       0.58235121      -3.34592816       0.00000000
Si       1.18289739      -1.77381768      -2.88918472       0.00000000
Si      -1.04599719       1.55069397      -3.08520335       0.00000000
Si      -0.04906548      -2.35083338       2.76056692       0.00000000
