10
Lattice="16.28999089631971 0.0 0.0 0.0 16.28999089631971 0.0 0.0 0.0 34.54679606040008" Properties=species:S:1:pos:R:3:initial_magmoms:R:1 pbc="T T T"
Si      -0.76081698      -1.75518234      -1.34124556       0.00000000
Si      -1.67206329       1.72258605      -0.11459179       0.00000000
Si      -0.31772668      -0.61318818       2.34230863       0.00000000
Si       2.02139189       0.97168221      -1.17980829       0.00000000
Si      -1.99001151      -0.39385962      -2.74795733       0.00000000
Si      -2.59842672      -2.44771911       0.06895544       0.00000000
Si       0.74122269       2.32609797      -2.71513786       0.00000000
Si      -1.75727628       1.20529710       3.08848529       0.00000000
Si      -3.46088448       0.78178968      -1.37589602       0.00000000
Si      -1.77545592      -2.53182438       2.33063181       0.00000000
