10
Lattice="16.28999089631971 0.0 0.0 0.0 16.28999089631971 0.0 0.0 0.0 34.54679606040008" Properties=species:S:1:pos:R:3:initial_magmoms:R:1 pbc="T T T"
Si      -1.35169533      -1.36086660      -1.36850300       0.00000000
Si      -1.19180898       1.49019291       1.38874743       0.00000000
Si       1.36285398       1.35536058      -1.36960850       0.00000000
Si       1.24188444      -1.54768032       1.34124556       0.00000000
Si      -0.62848449       0.15785010       3.53887213       0.00000000
Si       0.41524839       2.55772548       2.72187449       0.00000000
Si      -2.70141957       2.71985985      -0.00469837       0.00000000
Si       2.71676475       2.71464705      -0.00155461       0.00000000
Si      -2.68957674      -2.74251924      -0.00583841       0.00000000
Si       2.71275741      -2.72332962      -0.03081576       0.00000000
