10
Lattice="16.28999089631971 0.0 0.0 0.0 16.28999089631971 0.0 0.0 0.0 34.54679606040008" Properties=species:S:1:pos:R:3:initial_magmoms:R:1 pbc="T T T"
Si       1.20031466       1.49332059       1.29623106       0.00000000
Si       1.45170357      -1.25586126      -1.37465233       0.00000000
Si      -1.27552329       1.46215782      -1.37821065       0.00000000
Si      -0.96158241      -1.85937318       1.22589374       0.00000000
Si       2.15773172       0.28118169       2.99427613       0.00000000
Si       2.73187277      -2.61027702       0.16067724       0.00000000
Si       0.08289981      -2.61043992      -2.74543542       0.00000000
Si      -2.62943406       0.10287135      -2.74626454       0.00000000
Si       0.71048088      -3.58195923       1.34048553       0.00000000
Si      -2.55493989       2.94032871      -0.02221360       0.00000000
