10
Lattice="16.28999089631971 0.0 0.0 0.0 16.28999089631971 0.0 0.0 0.0 34.54679606040008" Properties=species:S:1:pos:R:3:initial_magmoms:R:1 pbc="T T T"
Si       0.80105912      -1.03039137       1.93683266       0.00000000
Si      -0.35097619       2.28825630       0.39044811       0.00000000
Si       1.95229297       0.05664033      -1.44239864       0.00000000
Si      -2.14756513      -1.00514187      -0.67656483       0.00000000
Si      -0.00356262       0.95622300      -2.83529168       0.00000000
Si      -1.68194806      -0.90746703      -3.00999493       0.00000000
Si      -1.31788285       2.83486725      -1.72136417       0.00000000
Si      -0.70226746      -0.51222276       3.67446838       0.00000000
Si      -2.02162714      -3.23294598       0.08995991       0.00000000
Si       2.91944656      -2.03955687      -1.65271965       0.00000000
