10
Lattice="16.28999089631971 0.0 0.0 0.0 16.28999089631971 0.0 0.0 0.0 34.54679606040008" Properties=species:S:1:pos:R:3:initial_magmoms:R:1 pbc="T T T"
Si       1.75345560       1.08750411       1.11195835       0.00000000
Si       1.55514114      -1.33400439      -1.21214411       0.00000000
Si      -0.74036421       1.51363422      -1.70391803       0.00000000
Si      -3.13514082      -0.53423055       0.06311703       0.00000000
Si      -0.04608441       2.06576748       2.49552375       0.00000000
Si      -2.20512843      -2.45558718      -1.02182570       0.00000000
Si      -0.04557942      -3.03681438      -1.82662832       0.00000000
Si       2.42366743      -0.69949260       2.51925742       0.00000000
Si       3.34364697      -1.62800631       0.36505620       0.00000000
Si       0.18047691       0.55778589      -3.69346912       0.00000000
