10
Lattice="16.28999089631971 0.0 0.0 0.0 16.28999089631971 0.0 0.0 0.0 34.54679606040008" Properties=species:S:1:pos:R:3:initial_magmoms:R:1 pbc="T T T"
Si      -1.19176011       2.04146280      -0.28998597       0.00000000
Si       0.35567586      -0.88816338      -2.19949209       0.00000000
Si       0.84725919      -0.29986632       2.32061323       0.00000000
Si      -1.95207957      -1.58236173       0.45349605       0.00000000
Si      -0.81466290      -1.98555552       2.72636558       0.00000000
Si      -1.81310958       2.37803049       1.99096752       0.00000000
Si      -0.68805702      -3.28803876      -1.38249446       0.00000000
Si       0.56676168       3.58492401      -0.90215554       0.00000000
Si       2.30873283       2.28020904      -1.96440102       0.00000000
Si       1.37777562       0.74692908      -3.56692414       0.00000000
