10
Lattice="16.28999089631971 0.0 0.0 0.0 16.28999089631971 0.0 0.0 0.0 34.54679606040008" Properties=species:S:1:pos:R:3:initial_magmoms:R:1 pbc="T T T"
Si      -1.66192209      -1.68568920       0.40575235       0.00000000
Si      -1.02744288       1.78953795       1.29374369       0.00000000
Si       2.40272613      -0.52786116      -0.14772218       0.00000000
Si      -0.84725919       0.29986632      -2.32061323       0.00000000
Si      -2.79933876      -1.28249541      -1.86711718       0.00000000
Si       3.17433065       1.51935201      -1.04580119       0.00000000
Si       1.81351683       3.24218241      -0.16838118       0.00000000
Si       0.84289347       3.06064665       2.01926136       0.00000000
Si      -2.03989896       0.65031309       3.12178842       0.00000000
Si      -2.66036877       2.67789681      -0.32964571       0.00000000
