10
Lattice="16.28999089631971 0.0 0.0 0.0 16.28999089631971 0.0 0.0 0.0 34.54679606040008" Properties=species:S:1:pos:R:3:initial_magmoms:R:1 pbc="T T T"
Si       1.37373570      -1.32333444       1.36564252       0.00000000
Si      -1.32051627       1.38378948       1.36294096       0.00000000
Si       1.15900092       1.46702285      -1.46930166       0.00000000
Si      -1.73007945      -0.81564030      -1.41388857       0.00000000
Si      -0.31843692      -1.21961601      -3.38395526       0.00000000
Si      -2.66449014      -2.65797414      -0.03402516       0.00000000
Si      -2.66875812       2.71552249       0.01605045       0.00000000
Si       1.71894753       0.25858746      -3.39224650       0.00000000
Si       0.02353905      -2.68889256       2.71257103       0.00000000
Si      -2.69454519       0.03054375       2.70849451       0.00000000
