10
Lattice="16.28999089631971 0.0 0.0 0.0 16.28999089631971 0.0 0.0 0.0 34.54679606040008" Properties=species:S:1:pos:R:3:initial_magmoms:R:1 pbc="T T T"
Si       1.31166658      -1.40892210      -1.27445275       0.00000000
Si      -1.35019665      -1.36555812       1.34692851       0.00000000
Si      -1.37373570       1.32333444      -1.36564252       0.00000000
Si       1.36262659       1.35643572       1.34983044       0.00000000
Si       0.00487130      -2.84314257      -2.46258337       0.00000000
Si       2.70142676       2.69733117      -0.02921624       0.00000000
Si      -2.69425197       2.70712392      -0.00270156       0.00000000
Si       0.00500103       2.70700704       2.70641479       0.00000000
Si      -2.70959715      -0.00773775       2.70437653       0.00000000
Si       2.71988333      -0.00728163       2.70472200       0.00000000
