10
Lattice="16.28999089631971 0.0 0.0 0.0 16.28999089631971 0.0 0.0 0.0 34.54679606040008" Properties=species:S:1:pos:R:3:initial_magmoms:R:1 pbc="T T T"
Si       0.27997623       2.12059052       1.01733462       0.00000000
Si       1.46287362       0.34677284      -1.87185010       0.00000000
Si       0.78327307      -1.38882024       1.80983856       0.00000000
Si      -2.03186799      -0.65726892      -1.17003154       0.00000000
Si      -1.68645483       0.24347034      -3.32910386       0.00000000
Si      -1.62210933      -2.96238537      -1.71220926       0.00000000
Si      -1.47334905       3.48556220       0.21470846       0.00000000
Si       0.23091075      -0.23024286       3.77790154       0.00000000
Si       1.43118631       2.70294173      -2.32859354       0.00000000
Si       0.46066491      -0.68769864      -3.75506610       0.00000000
