10
Lattice="16.28999089631971 0.0 0.0 0.0 16.28999089631971 0.0 0.0 0.0 34.54679606040008" Properties=species:S:1:pos:R:3:initial_magmoms:R:1 pbc="T T T"
Si       2.32841115       0.33102909      -0.22334516       0.00000000
Si      -0.96314625       2.01814596      -0.78055075       0.00000000
Si      -0.62982027      -0.03054375       2.28406270       0.00000000
Si      -0.61672311      -1.96330338      -1.18353935       0.00000000
Si       2.23467849       2.61688166      -0.63680145       0.00000000
Si      -3.04653951       0.02792106       1.73887940       0.00000000
Si       1.50387651      -2.70762606      -1.86597714       0.00000000
Si      -3.02526477       1.95205743       0.34474267       0.00000000
Si       0.42805233      -2.00937150       3.05034561       0.00000000
Si       0.35370477       3.68469116       0.24814977       0.00000000
