10
Lattice="16.28999089631971 0.0 0.0 0.0 16.28999089631971 0.0 0.0 0.0 34.54679606040008" Properties=species:S:1:pos:R:3:initial_magmoms:R:1 pbc="T T T"
Si      -1.05787260       1.97882775      -0.76628291       0.00000000
Si       0.67539969       0.29763459       2.26651292       0.00000000
Si      -1.45272591      -1.80473652      -0.64042886       0.00000000
Si       2.27110293      -0.30988467      -0.88198020       0.00000000
Si       1.48400271      -1.91726784       2.56067905       0.00000000
Si      -0.06286311      -3.61447407      -0.09631652       0.00000000
Si      -0.42805233       2.00937150      -3.05034561       0.00000000
Si       0.24713559       3.68099170       0.41193623       0.00000000
Si       3.26419576      -1.52847441       0.97591299       0.00000000
Si       2.13182343      -1.62357543      -2.84461932       0.00000000
