10
Lattice="16.28999089631971 0.0 0.0 0.0 16.28999089631971 0.0 0.0 0.0 34.54679606040008" Properties=species:S:1:pos:R:3:initial_magmoms:R:1 pbc="T T T"
Si      -0.95741706       1.21213890      -1.69804507       0.00000000
Si       2.14584912       0.50209038       0.69411461       0.00000000
Si      -1.52614168      -0.79415379       1.60939794       0.00000000
Si       1.95791139      -1.45823193      -1.35696436       0.00000000
Si       0.42971391      -1.69373646       3.00229099       0.00000000
Si      -2.15773172      -0.28118169      -2.99427613       0.00000000
Si       2.24404524      -0.06309117       3.02785563       0.00000000
Si       0.60786135       2.52113814      -2.95340725       0.00000000
Si      -2.84046191       1.08449046       2.72332546       0.00000000
Si       0.57414105      -2.89145871      -2.83359889       0.00000000
