10
Lattice="16.28999089631971 0.0 0.0 0.0 16.28999089631971 0.0 0.0 0.0 34.54679606040008" Properties=species:S:1:pos:R:3:initial_magmoms:R:1 pbc="T T T"
Si       1.12606417       1.62276093       1.31025707       0.00000000
Si       1.60257925      -1.75153338       0.13801453       0.00000000
Si      -1.78019305      -0.38879343       1.58476606       0.00000000
Si      -0.99309283       1.21858974      -1.85789318       0.00000000
Si      -2.58879607       1.82610900       1.29059993       0.00000000
Si      -0.55141161       3.30431247       1.28230869       0.00000000
Si       3.20773069       1.60453242       0.24044583       0.00000000
Si      -3.26419576       1.52847441      -0.97591299       0.00000000
Si      -1.59750070      -2.15098047      -2.72380911       0.00000000
Si      -0.89175215      -1.12075200       3.57761435       0.00000000
