10
Lattice="16.28999089631971 0.0 0.0 0.0 16.28999089631971 0.0 0.0 0.0 34.54679606040008" Properties=species:S:1:pos:R:3:initial_magmoms:R:1 pbc="T T T"
Si       1.35774924       1.35707103       1.35651525       0.00000000
Si       1.35752118      -1.35827649      -1.35768984       0.00000000
Si      -1.35801272       1.35793440      -1.35779348       0.00000000
Si      -1.35765434      -1.36014984       1.35775894       0.00000000
Si      -0.00105572       2.71368594      -2.71413600       0.00000000
Si       2.71460850       2.71481211      -0.00048366       0.00000000
Si       2.71382658      -0.00060273      -2.71582880       0.00000000
Si      -2.71519778       2.71493996      -0.00041456       0.00000000
Si      -2.71516520      -2.71538010      -0.00051820       0.00000000
Si       2.71526010      -2.71583622      -0.00065639       0.00000000
