10
Lattice="16.28999089631971 0.0 0.0 0.0 16.28999089631971 0.0 0.0 0.0 34.54679606040008" Properties=species:S:1:pos:R:3:initial_magmoms:R:1 pbc="T T T"
Si      -1.35506736       1.35495333      -1.36269913       0.00000000
Si       1.35900954      -1.36088289      -1.36245730       0.00000000
Si       1.34372952       1.36414089       1.38688190       0.00000000
Si      -1.36720830      -1.34936586       1.38708918       0.00000000
Si       2.64552858      -0.13351284       2.73911335       0.00000000
Si      -2.71431215       2.71293748      -0.00255646       0.00000000
Si      -2.71174222      -2.71863810      -0.00342013       0.00000000
Si       2.71552671       2.71511946      -0.00006909       0.00000000
Si      -2.71281660      -0.00211770      -2.71921438       0.00000000
Si       0.00179190       2.71269441      -2.71969804       0.00000000
