10
Lattice="16.28999089631971 0.0 0.0 0.0 16.28999089631971 0.0 0.0 0.0 34.54679606040008" Properties=species:S:1:pos:R:3:initial_magmoms:R:1 pbc="T T T"
Si      -0.50837247      -1.01017548       2.06089027       0.00000000
Si      -1.41355890       1.93716512      -0.10972069       0.00000000
Si       1.01621744      -1.38448710      -1.75249085       0.00000000
Si       1.61563894       2.94905105       1.38287447       0.00000000
Si      -2.65549221      -0.07900650       2.48685250       0.00000000
Si      -2.23652970       2.02127039      -2.37139705       0.00000000
Si       0.04417034       3.85580132      -0.09804386       0.00000000
Si       2.80308220      -2.79308340      -0.37092916       0.00000000
Si       0.49383624       0.02429600       3.94410627       0.00000000
Si      -1.62052335      -3.10332645       1.91610457       0.00000000
