10
Lattice="10.86 0.0 0.0 0.0 10.86 0.0 0.0 0.0 10.86" Properties=species:S:1:pos:R:3:initial_magmoms:R:1 pbc="T T T"
Si      -1.24096134      -1.20279930      -1.42523382       0.00000000
Si      -1.24096134       1.51220070       1.28976618       0.00000000
Si       1.47403866       1.51220070      -1.42523382       0.00000000
Si      -2.59846134      -2.56029930      -0.06773382       0.00000000
Si      -2.59846134       0.15470070       2.64726618       0.00000000
Si       0.11653866      -2.56029930      -2.78273382       0.00000000
Si      -0.00338832      -2.61061368       2.73841416       0.00000000
Si      -2.59846134       0.15470070      -2.78273382       0.00000000
Si       2.87205732      -2.52830574      -0.04360290       0.00000000
Si      -2.59846134       2.86970070      -0.06773382       0.00000000
