10
Lattice="16.28999089631971 0.0 0.0 0.0 16.28999089631971 0.0 0.0 0.0 34.642051614445585" Properties=species:S:1:pos:R:3:initial_magmoms:R:1 pbc="T T T"
Si      -1.35781732      -1.35739683      -1.35880059       0.00000000
Si       1.35806635       1.35733167      -1.35862738       0.00000000
Si      -1.36158373       1.35741312       1.35505925       0.00000000
Si       1.36176418      -1.36288656       1.36136411       0.00000000
Si      -2.71414762       2.71533123      -0.00214781       0.00000000
Si      -2.71416391      -0.00068418      -2.71573051       0.00000000
Si       0.00026716       2.71474479      -2.71545338       0.00000000
Si       2.71632655      -2.71406224      -0.00197460       0.00000000
Si       2.71464868      -0.00001629      -2.71579980       0.00000000
Si       0.00014172      -2.71475456      -2.71573051       0.00000000
