10
Lattice="16.28999089631971 0.0 0.0 0.0 16.28999089631971 0.0 0.0 0.0 34.642051614445585" Properties=species:S:1:pos:R:3:initial_magmoms:R:1 pbc="T T T"
Si       1.33770222       0.38258694      -1.90884739       0.00000000
Si      -2.03759360       0.91327183      -0.78090156       0.00000000
Si      -0.57589874      -2.27975292       0.39654779       0.00000000
Si       0.97469586       1.09930689       1.88345476       0.00000000
Si       1.34729703      -1.71587457      -2.95829429       0.00000000
Si       1.48232484      -3.28601880       0.78949280       0.00000000
Si      -3.63881852       0.67521514       0.97507037       0.00000000
Si      -1.88228832       3.27335237      -0.86140974       0.00000000
Si       1.57872906       3.34030427       1.20194129       0.00000000
Si      -1.97373061      -2.47694337       2.26898636       0.00000000
