10
Lattice="16.28999089631971 0.0 0.0 0.0 16.28999089631971 0.0 0.0 0.0 34.642051614445585" Properties=species:S:1:pos:R:3:initial_magmoms:R:1 pbc="T T T"
Si       1.39895262      -0.70978788      -1.76272714       0.00000000
Si       0.22287978       2.28426525      -0.69374211       0.00000000
Si       1.63994688      -0.49704048       1.73428600       0.00000000
Si      -2.31396192      -0.80303184      -0.15665144       0.00000000
Si      -3.33547524       0.34787295       1.68308502       0.00000000
Si      -2.15710551       2.42673759       2.04156117       0.00000000
Si       0.33622560      -0.08824293      -3.83051236       0.00000000
Si      -0.30024099       3.67398144       1.15271491       0.00000000
Si       1.42873074      -3.04437946      -1.96067193       0.00000000
Si       3.79126944      -0.02785590       1.05169863       0.00000000
