10
Lattice="16.28999089631971 0.0 0.0 0.0 16.28999089631971 0.0 0.0 0.0 34.642051614445585" Properties=species:S:1:pos:R:3:initial_magmoms:R:1 pbc="T T T"
Si      -0.29853054      -2.33932938       0.29740218       0.00000000
Si       0.41143653       0.48460144      -2.32645756       0.00000000
Si       2.13141618       0.38208847       1.11568254       0.00000000
Si      -1.75428476       1.67801987       0.21883396       0.00000000
Si      -0.39851856       2.69366879      -2.67249721       0.00000000
Si      -0.71588034       3.59465240       1.09572870       0.00000000
Si       1.14763050      -3.51411531      -1.18527846       0.00000000
Si      -0.30783213      -2.90703588       2.60328235       0.00000000
Si       3.70727820       1.36622927      -0.44338387       0.00000000
Si      -2.62759166       2.39026754      -1.91116841       0.00000000
