10
Lattice="16.28999089631971 0.0 0.0 0.0 16.28999089631971 0.0 0.0 0.0 34.642051614445585" Properties=species:S:1:pos:R:3:initial_magmoms:R:1 pbc="T T T"
Si      -1.39968567       1.25081136       1.38575212       0.00000000
Si       0.69983469       1.95620094      -1.18668631       0.00000000
Si      -0.98921025      -1.89845289      -1.08081079       0.00000000
Si       1.34835588      -1.44780633       1.38495882       0.00000000
Si      -0.01229895       2.60402166       2.74869244       0.00000000
Si      -2.80992726       2.57038281      -0.10164676       0.00000000
Si       2.67955839       2.72676681      -0.11434308       0.00000000
Si       2.56725513      -2.87612982      -0.04906357       0.00000000
Si       2.70348840      -0.11670156       2.74931600       0.00000000
Si      -2.72683523      -0.11236842       2.75080561       0.00000000
