10
Lattice="16.28999089631971 0.0 0.0 0.0 16.28999089631971 0.0 0.0 0.0 34.642051614445585" Properties=species:S:1:pos:R:3:initial_magmoms:R:1 pbc="T T T"
Si      -1.35707103      -1.35685926      -1.35731098       0.00000000
Si       1.35703845      -1.35790182       1.35692992       0.00000000
Si       1.35850455       1.35645201      -1.35738027       0.00000000
Si      -1.35780408       1.35756141       1.35758812       0.00000000
Si       2.71440270      -2.71438641      -0.00024249       0.00000000
Si       2.71472850       0.00144981      -2.71413698       0.00000000
Si      -0.00151497      -2.71529865       2.71365199       0.00000000
Si       2.71524978      -0.00013032       2.71417162       0.00000000
Si       2.71520091       2.71453858       0.00017321       0.00000000
Si       0.00084708       2.71592323       2.71385984       0.00000000
