10
Lattice="16.28999089631971 0.0 0.0 0.0 16.28999089631971 0.0 0.0 0.0 34.642051614445585" Properties=species:S:1:pos:R:3:initial_magmoms:R:1 pbc="T T T"
Si      -0.96166386       1.40245497       1.60112188       0.00000000
Si      -1.21323033       0.17171289      -2.03096070       0.00000000
Si      -0.72570321      -2.17500822       0.75436574       0.00000000
Si       2.41290738       0.05172075      -0.21582010       0.00000000
Si       1.37583711      -3.14642979       1.27375431       0.00000000
Si      -0.88853805       2.50846845      -2.55232386       0.00000000
Si       2.91136509      -2.26207827      -0.38816441       0.00000000
Si      -1.52910972       0.02886588       3.41872206       0.00000000
Si      -3.33876582      -0.78250644      -1.53668763       0.00000000
Si       0.68062878       2.88823233       2.37253151       0.00000000
