10
Lattice="16.28999089631971 0.0 0.0 0.0 16.28999089631971 0.0 0.0 0.0 34.642051614445585" Properties=species:S:1:pos:R:3:initial_magmoms:R:1 pbc="T T T"
Si       0.96166386      -1.40245497      -1.60112188       0.00000000
Si       1.64229264       1.48577736       0.77140964       0.00000000
Si      -0.56744586      -1.37358909       1.81760018       0.00000000
Si      -1.39331628       1.71124236      -0.83684851       0.00000000
Si      -1.32587568       2.99114441       1.22743786       0.00000000
Si       0.18254574       2.69538317      -2.39591491       0.00000000
Si      -2.65465098      -0.61727697       2.44240457       0.00000000
Si       2.55920787       0.34230177       2.62077660       0.00000000
Si       0.23596065      -3.57746319      -0.84675614       0.00000000
Si       2.21299650       2.78015633      -1.14492045       0.00000000
