10
Lattice="16.28999089631971 0.0 0.0 0.0 16.28999089631971 0.0 0.0 0.0 34.642051614445585" Properties=species:S:1:pos:R:3:initial_magmoms:R:1 pbc="T T T"
Si       1.66840551      -0.35705955       1.54514029       0.00000000
Si       0.07552044       1.57101574      -1.73587953       0.00000000
Si      -2.17469871       0.44413545       0.85867301       0.00000000
Si      -0.92771550      -2.21078010      -0.46139774       0.00000000
Si      -0.83017098      -0.15061343      -3.20310981       0.00000000
Si      -2.49939099      -1.89262011       1.38003618       0.00000000
Si      -2.46640374      -1.33030560      -1.99091446       0.00000000
Si       3.55524363      -1.18418430       0.49139778       0.00000000
Si       2.01010455       1.53747463       2.83999162       0.00000000
Si      -2.06527878       2.03350513       2.61620384       0.00000000
