10
Lattice="16.28999089631971 0.0 0.0 0.0 16.28999089631971 0.0 0.0 0.0 34.642051614445585" Properties=species:S:1:pos:R:3:initial_magmoms:R:1 pbc="T T T"
Si       1.32434442      -1.35625979      -1.44128336       0.00000000
Si       1.16328519       1.71416412       1.19296900       0.00000000
Si      -1.85365539      -0.88492167       1.26561342       0.00000000
Si      -1.37691225       1.35422028      -1.45538269       0.00000000
Si      -0.70960869       3.29486427       1.31809616       0.00000000
Si      -2.75934681      -2.60655085      -0.20161685       0.00000000
Si      -2.61068427       2.76576507      -0.07534650       0.00000000
Si       2.76485283      -2.62989702      -0.04832569       0.00000000
Si       2.68255575       0.00508248      -2.80635417       0.00000000
Si      -0.03352482      -2.70883871      -2.81161976       0.00000000
