10
Lattice="16.28999089631971 0.0 0.0 0.0 16.28999089631971 0.0 0.0 0.0 34.642051614445585" Properties=species:S:1:pos:R:3:initial_magmoms:R:1 pbc="T T T"
Si      -2.15132256      -0.46918458       0.68258737       0.00000000
Si       0.57739905       2.13157908       0.94957381       0.00000000
Si      -0.04702923       0.01270620      -2.42698885       0.00000000
Si       1.36441782      -1.94670061       0.74279529       0.00000000
Si       2.88227115       1.64333520       0.87731045       0.00000000
Si      -1.55558097      -0.96767487       3.06682790       0.00000000
Si       2.30508387      -0.65386431      -2.77112318       0.00000000
Si       1.00608669      -3.20738045      -1.45773835       0.00000000
Si       3.33798390       0.92761776      -1.33701073       0.00000000
Si      -2.39231682      -0.68193198      -2.81442577       0.00000000
