10
Lattice="16.28999089631971 0.0 0.0 0.0 16.28999089631971 0.0 0.0 0.0 34.642051614445585" Properties=species:S:1:pos:R:3:initial_magmoms:R:1 pbc="T T T"
Si      -1.21645575       1.36642149       1.44995081       0.00000000
Si       1.16774865       1.59171219      -1.38693138       0.00000000
Si       1.48139631      -1.34368065       1.42324524       0.00000000
Si      -1.97960967      -0.80022996      -1.28522226       0.00000000
Si      -2.45068389       2.76609087       0.01906700       0.00000000
Si      -2.63603151      -2.68623729      -0.00987992       0.00000000
Si      -0.52579233       3.48073317      -1.41571894       0.00000000
Si      -2.56904703       0.00540828       2.79517864       0.00000000
Si       0.14423166      -2.71275741       2.79781143       0.00000000
Si       0.14698467       2.71715571       2.79999389       0.00000000
