10
Lattice="16.28999089631971 0.0 0.0 0.0 16.28999089631971 0.0 0.0 0.0 34.642051614445585" Properties=species:S:1:pos:R:3:initial_magmoms:R:1 pbc="T T T"
Si       1.35259128       1.36101321      -1.34522783       0.00000000
Si      -1.35767376       1.35536058       1.36029020       0.00000000
Si       1.35713619      -1.35979146       1.35945879       0.00000000
Si      -1.38253230      -1.36502055      -1.36833063       0.00000000
Si       2.56904703      -0.00540828      -2.79517864       0.00000000
Si      -2.71472850       2.70870120      -0.00062356       0.00000000
Si       2.71603170       2.71174743       0.00481525       0.00000000
Si       0.00004887       2.71205694       2.71739333       0.00000000
Si      -2.71235016      -2.71728603       0.00055427       0.00000000
Si       2.71414206      -0.00188964       2.71728941       0.00000000
