10
Lattice="16.28999089631971 0.0 0.0 0.0 16.28999089631971 0.0 0.0 0.0 34.642051614445585" Properties=species:S:1:pos:R:3:initial_magmoms:R:1 pbc="T T T"
Si       0.72122346       1.96634961      -1.15891584       0.00000000
Si      -1.90107558      -0.52909920      -1.39344266       0.00000000
Si      -0.51069150      -0.55789992       2.30972544       0.00000000
Si       1.87289388      -1.58070015      -0.12512716       0.00000000
Si      -0.66730356      -1.94064399      -2.77347884       0.00000000
Si       2.04278229       0.79540812      -2.75917167       0.00000000
Si      -2.90163996      -0.94297923       1.88217300       0.00000000
Si       0.70960869      -3.29486427      -1.31809616       0.00000000
Si      -2.86871787      -2.32611426      -0.05428413       0.00000000
Si      -0.23703579       1.58496813       3.44640107       0.00000000
