10
Lattice="16.28999089631971 0.0 0.0 0.0 16.28999089631971 0.0 0.0 0.0 34.642051614445585" Properties=species:S:1:pos:R:3:initial_magmoms:R:1 pbc="T T T"
Si       0.51069150       0.55789992      -2.30972544       0.00000000
Si       0.27365571       2.14286805       1.13667563       0.00000000
Si      -2.39094846      -0.38507931      -0.42755244       0.00000000
Si       1.77183072      -1.52653590       1.26651411       0.00000000
Si       2.38358538      -1.02280023      -2.43485260       0.00000000
Si       2.28100725       1.76371830       2.43741611       0.00000000
Si      -2.35802637      -1.76821434      -2.36400957       0.00000000
Si      -1.81872963       2.48284035       2.35479477       0.00000000
Si       3.57883155      -1.52792055      -0.36239070       0.00000000
Si      -1.39038408       0.02880072      -3.70316810       0.00000000
