10
Lattice="16.28999089631971 0.0 0.0 0.0 16.28999089631971 0.0 0.0 0.0 34.642051614445585" Properties=species:S:1:pos:R:3:initial_magmoms:R:1 pbc="T T T"
Si      -1.35477414       1.35575154      -1.36347727       0.00000000
Si      -1.35847197      -1.33648047       1.38616783       0.00000000
Si       1.36241415      -1.35865116      -1.36257658       0.00000000
Si       1.36489023       1.34307792       1.39863897       0.00000000
Si       0.14064786      -2.67245595       2.73176979       0.00000000
Si      -2.71125873       2.71062342      -0.00207852       0.00000000
Si      -2.71223613      -2.71788876      -0.00530024       0.00000000
Si      -2.71241532      -0.00143352      -2.72037255       0.00000000
Si       0.00278559       2.71375110      -2.72026862       0.00000000
Si       2.72052774       2.71466334      -0.00155889       0.00000000
