10
Lattice="16.28999089631971 0.0 0.0 0.0 16.28999089631971 0.0 0.0 0.0 34.642051614445585" Properties=species:S:1:pos:R:3:initial_magmoms:R:1 pbc="T T T"
Si      -0.31333815      -2.33295606       0.26220584       0.00000000
Si      -2.10154032       0.97142157      -0.51938857       0.00000000
Si       0.81819783       0.74143935       2.14091463       0.00000000
Si       1.53552798       0.88435152      -1.66191871       0.00000000
Si      -3.13292538       0.89495631       1.64865080       0.00000000
Si      -1.37583711       3.14642979      -1.27375431       0.00000000
Si       1.03707027       3.19815054      -1.48957441       0.00000000
Si       2.62190808      -0.77366097       2.54186196       0.00000000
Si       1.76881707      -3.48718401       0.38733300       0.00000000
Si      -1.19953044      -3.40348599      -1.70362777       0.00000000
