10
Lattice="16.28999089631971 0.0 0.0 0.0 16.28999089631971 0.0 0.0 0.0 34.642051614445585" Properties=species:S:1:pos:R:3:initial_magmoms:R:1 pbc="T T T"
Si       1.49046984       1.44153468       1.05107508       0.00000000
Si       1.04238081      -1.52821377      -1.46196468       0.00000000
Si       0.01586646      -1.43557254       1.90922846       0.00000000
Si      -1.80371025       1.51510032      -0.40094733       0.00000000
Si       2.14321014      -0.34047729       2.38146917       0.00000000
Si      -3.01527900       0.82622880       1.56232276       0.00000000
Si      -0.85309101      -2.71352304      -2.15452896       0.00000000
Si      -1.91708865      -0.69639750       3.09377943       0.00000000
Si      -2.62190808       0.77366097      -2.54186196       0.00000000
Si       3.01260744       2.13563529      -0.55326852       0.00000000
