10
Lattice="16.28999089631971 0.0 0.0 0.0 16.28999089631971 0.0 0.0 0.0 34.642051614445585" Properties=species:S:1:pos:R:3:initial_magmoms:R:1 pbc="T T T"
Si      -0.42668397       1.96910262       1.18344243       0.00000000
Si      -2.01231999      -0.83794131      -0.89137513       0.00000000
Si       1.21156875       0.68887152      -1.96327009       0.00000000
Si       1.09819035      -1.52262630       1.53145667       0.00000000
Si       3.01527900      -0.82622880      -1.56232276       0.00000000
Si       1.65705138       2.73452085       1.79501355       0.00000000
Si      -0.59849460      -3.11394753       1.98571815       0.00000000
Si      -1.37288862      -2.91349908      -1.95433243       0.00000000
Si      -3.50919180      -0.96264126       0.98054382       0.00000000
Si      -2.73955446       0.84238848      -2.45553392       0.00000000
