10
Lattice="16.28999089631971 0.0 0.0 0.0 16.28999089631971 0.0 0.0 0.0 34.642051614445585" Properties=species:S:1:pos:R:3:initial_magmoms:R:1 pbc="T T T"
Si       2.00969730      -1.10822499      -0.52330312       0.00000000
Si      -0.96987402       1.52611236      -1.56890475       0.00000000
Si      -1.60733430      -1.76332734       0.40274872       0.00000000
Si       0.27600147       1.88603991       1.57507104       0.00000000
Si       1.29953475      -2.99380878      -1.85449399       0.00000000
Si       2.70557352      -2.13946344       1.70019820       0.00000000
Si       3.83774481       0.38286387      -0.81007019       0.00000000
Si       0.29657574       0.98124444       3.81717516       0.00000000
Si      -3.09755979       2.30322681      -0.89341901       0.00000000
Si      -3.42280593      -0.92445750       1.77415902       0.00000000
