10
Lattice="16.28999089631971 0.0 0.0 0.0 16.28999089631971 0.0 0.0 0.0 34.642051614445585" Properties=species:S:1:pos:R:3:initial_magmoms:R:1 pbc="T T T"
Si       0.02057427      -0.90479547       2.24210412       0.00000000
Si       1.20762657       2.09758185      -0.02840650       0.00000000
Si      -0.27600147      -1.88603991      -1.57507104       0.00000000
Si      -1.24587549      -0.35992755      -3.14397579       0.00000000
Si      -0.80159832       3.20357511      -1.37217243       0.00000000
Si      -0.28044864       1.79001036      -3.17761324       0.00000000
Si       2.38804884       1.99775673       2.29399794       0.00000000
Si       0.72187506       0.96580152       3.71908063       0.00000000
Si       1.71411525      -2.79381645       2.27089168       0.00000000
Si       1.73369583      -2.99426490      -2.09837417       0.00000000
