10
Lattice="16.28999089631971 0.0 0.0 0.0 16.28999089631971 0.0 0.0 0.0 34.642051614445585" Properties=species:S:1:pos:R:3:initial_magmoms:R:1 pbc="T T T"
Si      -1.35176049      -1.35329175       1.38738030       0.00000000
Si       1.36018242       1.36014562       1.38436644       0.00000000
Si       1.32483312      -1.28335878      -1.55998788       0.00000000
Si      -1.43811378       1.24038317      -1.53530887       0.00000000
Si       2.11038579       0.82630440      -2.92747813       0.00000000
Si       0.17259255       2.47970357      -2.86349423       0.00000000
Si      -2.71740006      -2.69392617       0.01339955       0.00000000
Si       2.71195920      -2.70617625      -0.00726098       0.00000000
Si      -2.71832859       2.71838465      -0.01328523       0.00000000
Si      -0.32031027      -2.30071815      -3.06923349       0.00000000
