10
Lattice="16.28999089631971 0.0 0.0 0.0 16.28999089631971 0.0 0.0 0.0 34.642051614445585" Properties=species:S:1:pos:R:3:initial_magmoms:R:1 pbc="T T T"
Si       1.35830697       1.36012703      -1.33561812       0.00000000
Si       1.35591121      -1.35803617       1.36105233       0.00000000
Si      -1.35941679       1.35563099       1.36084447       0.00000000
Si      -1.38518757      -1.36436636      -1.37590338       0.00000000
Si       0.02810025       2.71397264      -2.67852839       0.00000000
Si       2.71392770       2.71222961       0.00852195       0.00000000
Si      -2.71461447      -2.71589879       0.00072748       0.00000000
Si       2.71166013      -2.71915679      -0.00176675       0.00000000
Si       2.71300243      -0.00097740       2.71815546       0.00000000
Si      -2.71821456       2.71301153       0.00342957       0.00000000
