10
Lattice="16.28999089631971 0.0 0.0 0.0 16.28999089631971 0.0 0.0 0.0 34.642051614445585" Properties=species:S:1:pos:R:3:initial_magmoms:R:1 pbc="T T T"
Si       1.35791811       1.35518887       1.35731098       0.00000000
Si      -1.35764118       1.35729517      -1.35779597       0.00000000
Si       1.35769005      -1.35814425      -1.35741491       0.00000000
Si      -1.35795069      -1.35794877       1.35793454       0.00000000
Si       2.71347086       0.00231510       2.71524552       0.00000000
Si       0.00009774       2.71428149      -2.71444876       0.00000000
Si      -2.71448415      -0.00101789      -2.71462197       0.00000000
Si       2.71429728      -2.71506867       0.00010393       0.00000000
Si       2.71455792       2.71503083      -0.00020785       0.00000000
Si       2.71542574       0.00061433      -2.71424090       0.00000000
