10
Lattice="16.28999089631971 0.0 0.0 0.0 16.28999089631971 0.0 0.0 0.0 34.642051614445585" Properties=species:S:1:pos:R:3:initial_magmoms:R:1 pbc="T T T"
Si       1.34225231       1.34330598      -1.37702232       0.00000000
Si      -1.36783872      -1.37305152      -1.36943571       0.00000000
Si      -1.23724179       1.49379300       1.37802694       0.00000000
Si       1.63606727      -1.13867100       1.33115622       0.00000000
Si       0.28072557      -2.60751424       2.47146927       0.00000000
Si       0.37357857       2.44410273       2.77812088       0.00000000
Si       2.69329968       2.71467963      -0.00782911       0.00000000
Si      -2.71722087       2.71213839      -0.00415705       0.00000000
Si      -0.01031157       2.70122409      -2.73422938       0.00000000
Si       2.70383605      -0.01410714      -2.73208157       0.00000000
