10
Lattice="16.28999089631971 0.0 0.0 0.0 16.28999089631971 0.0 0.0 0.0 34.642051614445585" Properties=species:S:1:pos:R:3:initial_magmoms:R:1 pbc="T T T"
Si       1.35534170       1.46884324      -1.14031305       0.00000000
Si      -0.20354355       0.53857021       2.24310874       0.00000000
Si      -1.56626721      -1.40051679      -1.08287650       0.00000000
Si       2.41911128      -0.13739638      -2.48691963       0.00000000
Si      -0.28072557       2.60751424      -2.47146927       0.00000000
Si      -0.65215386      -1.55374087       3.23158559       0.00000000
Si      -0.28864251      -2.83589419      -2.47683879       0.00000000
Si      -1.97258868       2.43842404       2.23088009       0.00000000
Si      -3.00677562      -0.12687955      -2.47583417       0.00000000
Si       1.62954639       1.83098623       3.11536144       0.00000000
