10
Lattice="16.28999089631971 0.0 0.0 0.0 16.28999089631971 0.0 0.0 0.0 34.642051614445585" Properties=species:S:1:pos:R:3:initial_magmoms:R:1 pbc="T T T"
Si       0.89292006       1.72962333       1.29854417       0.00000000
Si      -1.79029611      -0.92289366       1.26868964       0.00000000
Si      -0.49880862       1.25516079      -2.01597942       0.00000000
Si       1.79162144      -1.71507636      -0.27143937       0.00000000
Si       2.25088541       0.43108227       2.62244288       0.00000000
Si      -0.46008938      -2.27673927       2.61159991       0.00000000
Si       1.50814286       2.60740998      -2.04168384       0.00000000
Si       2.27786165      -1.17522576      -2.73518346       0.00000000
Si       0.19653559      -0.18272493      -3.74538089       0.00000000
Si       3.51560843      -0.81536337       1.13151396       0.00000000
