10
Lattice="16.28999089631971 0.0 0.0 0.0 16.28999089631971 0.0 0.0 0.0 34.642051614445585" Properties=species:S:1:pos:R:3:initial_magmoms:R:1 pbc="T T T"
Si       0.48620763       1.58798455       1.58400870       0.00000000
Si      -1.95826977       0.50567532      -1.18669878       0.00000000
Si      -0.43207596      -2.18204014       0.76434265       0.00000000
Si       1.60122492       0.23805668      -1.75597194       0.00000000
Si      -1.46544840      -1.20442837      -2.81556896       0.00000000
Si       0.55636866       3.41014485       0.04392615       0.00000000
Si      -1.26939825      -3.05050891      -1.26408917       0.00000000
Si       1.75653019       2.59813722      -1.83648011       0.00000000
Si       2.53219158       0.44721866       2.64225468       0.00000000
Si       1.66508791      -3.15215851       1.29391599       0.00000000
