10
Lattice="16.28999089631971 0.0 0.0 0.0 16.28999089631971 0.0 0.0 0.0 34.642051614445585" Properties=species:S:1:pos:R:3:initial_magmoms:R:1 pbc="T T T"
Si      -1.35441576       1.35562122      -1.35498996       0.00000000
Si      -1.35630540      -1.35801585       1.35748419       0.00000000
Si       1.35884664       1.35653346       1.35748419       0.00000000
Si       1.35695700      -1.35549090      -1.36240337       0.00000000
Si       0.01422117       2.69892720      -2.70979633       0.00000000
Si      -2.71785618       0.00488700      -2.70503304       0.00000000
Si      -2.71208952       2.71262709       0.00045035       0.00000000
Si      -2.71295289      -0.00115659       2.71465661       0.00000000
Si       0.00140094       2.71410948       2.71465661       0.00000000
Si      -2.71331127      -2.71591767      -0.00034642       0.00000000
