10
Lattice="16.28999089631971 0.0 0.0 0.0 16.28999089631971 0.0 0.0 0.0 34.642051614445585" Properties=species:S:1:pos:R:3:initial_magmoms:R:1 pbc="T T T"
Si       1.35796535      -1.29854106       1.32389871       0.00000000
Si       1.73975408       0.99163746      -1.18127972       0.00000000
Si      -0.89292006      -1.72962333      -1.29854417       0.00000000
Si      -1.36163041       1.42540758       1.27426701       0.00000000
Si       0.61522280       0.87778665      -3.34022802       0.00000000
Si      -1.39172868      -0.47446254      -3.31452360       0.00000000
Si       2.62268837      -2.54498670      -0.16703021       0.00000000
Si       3.38872562      -0.73217034      -1.41379329       0.00000000
Si       0.00261129      -2.65426002       2.65719580       0.00000000
Si      -2.68321617      -2.65251699      -0.02985454       0.00000000
