10
Lattice="16.28999089631971 0.0 0.0 0.0 16.28999089631971 0.0 0.0 0.0 34.642051614445585" Properties=species:S:1:pos:R:3:initial_magmoms:R:1 pbc="T T T"
Si      -0.45571275       0.71571744       2.21432118       0.00000000
Si      -0.65627523       1.91791944      -1.23097135       0.00000000
Si      -1.03290003      -1.58148207      -1.43411245       0.00000000
Si       2.18559672      -0.95773797      -0.05428413       0.00000000
Si       0.23467374      -1.73784978       2.59340936       0.00000000
Si       0.02787219      -0.65368512      -3.34978434       0.00000000
Si       0.52447284       1.67762565      -3.19389502       0.00000000
Si      -3.38501313      -0.91491156      -1.08997812       0.00000000
Si       0.74976354       2.77226478       2.32372084       0.00000000
Si      -3.33798390      -0.92761776       1.33701073       0.00000000
