10
Lattice="16.28999089631971 0.0 0.0 0.0 16.28999089631971 0.0 0.0 0.0 34.642051614445585" Properties=species:S:1:pos:R:3:initial_magmoms:R:1 pbc="T T T"
Si       1.87411793      -1.15005771      -0.77591311       0.00000000
Si       0.84621241       0.98948718       1.96122621       0.00000000
Si      -0.45287829       1.58320881      -1.70442453       0.00000000
Si      -2.09131020      -1.21476159       0.05071599       0.00000000
Si       0.76772068      -2.77641873      -2.03636486       0.00000000
Si      -2.00252970       2.95298604      -0.53418073       0.00000000
Si      -1.70624718       0.24635367      -3.17764789       0.00000000
Si       2.43653507       2.51706564       1.14602899       0.00000000
Si       2.13820001      -0.76939299       2.91034967       0.00000000
Si      -3.36733848      -0.33019830      -1.65814273       0.00000000
