10
Lattice="16.28999089631971 0.0 0.0 0.0 16.28999089631971 0.0 0.0 0.0 34.642051614445585" Properties=species:S:1:pos:R:3:initial_magmoms:R:1 pbc="T T T"
Si       1.18074807      -0.24029379      -1.96292367       0.00000000
Si       0.65627523      -1.91791944       1.23097135       0.00000000
Si       0.71016255       1.88558379       1.33119086       0.00000000
Si      -2.28664359      -0.68510853      -0.71729872       0.00000000
Si       0.68414742      -2.57160456      -2.11881299       0.00000000
Si      -0.37662480      -3.49940151      -0.20314110       0.00000000
Si       0.20056248      -1.20220200       3.44529253       0.00000000
Si      -0.09528021       0.64426950      -3.67178239       0.00000000
Si      -1.29953475       2.99380878       1.85449399       0.00000000
Si      -2.90686905       1.23048144       2.25724270       0.00000000
