10
Lattice="16.28999089631971 0.0 0.0 0.0 16.28999089631971 0.0 0.0 0.0 34.642051614445585" Properties=species:S:1:pos:R:3:initial_magmoms:R:1 pbc="T T T"
Si       1.34011314      -1.29086847       1.38392995       0.00000000
Si      -1.39626477       1.44524880       1.34239757       0.00000000
Si       1.66617378       1.03195521      -1.42508269       0.00000000
Si      -0.70130079      -1.87059699      -1.47697651       0.00000000
Si      -2.62619235      -2.58523929      -0.04219058       0.00000000
Si       2.65140927      -2.62083294      -0.11557634       0.00000000
Si      -0.02852379      -2.63417445       2.73873631       0.00000000
Si       2.68543908       0.08061921       2.73367857       0.00000000
Si       2.58958872       2.83893975      -0.15425421       0.00000000
Si       3.48589710      -0.79850322      -1.44607579       0.00000000
