10
Lattice="16.28999089631971 0.0 0.0 0.0 16.28999089631971 0.0 0.0 0.0 34.642051614445585" Properties=species:S:1:pos:R:3:initial_magmoms:R:1 pbc="T T T"
Si       1.35671265       1.35674523      -1.35672207       0.00000000
Si      -1.35764118      -1.35852084      -1.35672207       0.00000000
Si      -1.35581670       1.35796698       1.36223016       0.00000000
Si       1.35809730      -1.36029645       1.35952808       0.00000000
Si       0.00009774       2.71355562      -2.71365199       0.00000000
Si       2.71435383       2.71352304       0.00041570       0.00000000
Si       2.71415835      -0.00083079      -2.71389448       0.00000000
Si      -2.71508688      -0.00143352      -2.71379056       0.00000000
Si      -0.00099369      -2.71538010      -2.71389448       0.00000000
Si      -2.71393029      -2.71534752       0.00121247       0.00000000
