10
Lattice="16.28999089631971 0.0 0.0 0.0 16.28999089631971 0.0 0.0 0.0 34.642051614445585" Properties=species:S:1:pos:R:3:initial_magmoms:R:1 pbc="T T T"
Si      -1.35764118      -1.35677781      -1.35713777       0.00000000
Si       1.35678642       1.35808101      -1.35699920       0.00000000
Si      -1.35596331       1.35641943       1.36146803       0.00000000
Si       1.35642333      -1.35788553       1.36139875       0.00000000
Si      -2.71435383      -2.71352304      -0.00041570       0.00000000
Si      -2.71425609       0.00003258      -2.71406769       0.00000000
Si      -0.00019548      -2.71435383      -2.71431019       0.00000000
Si       0.00017919       2.71500543      -2.71451804       0.00000000
Si       2.71498818       0.00061902      -2.71465661       0.00000000
Si       2.71576521      -2.71412577       0.00020785       0.00000000
