10
Lattice="16.28999089631971 0.0 0.0 0.0 16.28999089631971 0.0 0.0 0.0 34.642051614445585" Properties=species:S:1:pos:R:3:initial_magmoms:R:1 pbc="T T T"
Si      -1.20712158      -0.96441687       1.75697656       0.00000000
Si      -0.93825513       2.01790746      -0.76115558       0.00000000
Si       1.78614963       0.98686449       1.22958567       0.00000000
Si       0.14121801      -1.85536584      -1.80059092       0.00000000
Si      -1.97120403      -2.78515017      -0.94392715       0.00000000
Si       0.56964501       2.42035191      -2.73471437       0.00000000
Si      -0.36515664       3.66692787       0.83234504       0.00000000
Si       3.50130485       1.43843958      -0.41521986       0.00000000
Si       0.18999027      -2.48331276       2.95694325       0.00000000
Si       0.76310505       2.69943219       2.66567272       0.00000000
