10
Lattice="16.28999089631971 0.0 0.0 0.0 16.28999089631971 0.0 0.0 0.0 34.642051614445585" Properties=species:S:1:pos:R:3:initial_magmoms:R:1 pbc="T T T"
Si       1.98987237       1.18675908      -0.43888040       0.00000000
Si       1.12826169      -0.96749568       1.83332768       0.00000000
Si      -0.57309849      -1.64902041      -1.59350062       0.00000000
Si      -1.93451895       1.37759643       0.13562371       0.00000000
Si       2.15130627      -2.68006338       0.39724063       0.00000000
Si       1.02973977       3.14057909      -1.30378898       0.00000000
Si      -2.88376983       0.73503738       2.19201168       0.00000000
Si      -1.09957500       3.54385596      -0.28877630       0.00000000
Si      -2.97072585      -1.44511848      -1.81718448       0.00000000
Si       0.36515664      -3.66692787      -0.83234504       0.00000000
