10
Lattice="16.28999089631971 0.0 0.0 0.0 16.28999089631971 0.0 0.0 0.0 34.642051614445585" Properties=species:S:1:pos:R:3:initial_magmoms:R:1 pbc="T T T"
Si       1.66526154       1.20795237      -1.26564806       0.00000000
Si      -0.91826730      -1.54694727      -1.63503647       0.00000000
Si       2.23730118      -0.13836726       1.03042840       0.00000000
Si      -1.62131112       1.89309348       0.01098154       0.00000000
Si       0.28222425       2.35211310      -2.94010721       0.00000000
Si      -2.21583259       0.74010357       3.02283247       0.00000000
Si      -1.47999537      -3.49894539      -0.45568180       0.00000000
Si       2.02776291       1.01327058       3.08345610       0.00000000
Si      -2.45172482      -0.34301853      -2.93013029       0.00000000
Si      -3.54304894       1.02973977      -1.24160647       0.00000000
