10
Lattice="16.28999089631971 0.0 0.0 0.0 16.28999089631971 0.0 0.0 0.0 34.642051614445585" Properties=species:S:1:pos:R:3:initial_magmoms:R:1 pbc="T T T"
Si      -1.62057385      -0.58933962       1.64594872       0.00000000
Si       1.12789842       1.74399111       1.20602906       0.00000000
Si       1.76931717      -1.61766216      -0.49004674       0.00000000
Si      -0.92787418       0.20826765      -2.38337448       0.00000000
Si      -2.86069897      -2.26067733       0.53224078       0.00000000
Si       0.87652580       1.75228272      -3.13864091       0.00000000
Si       3.06396492       2.21869800      -0.08774837       0.00000000
Si      -0.40719136      -1.64390535       3.46053504       0.00000000
Si       0.73091275      -3.53429469      -1.36694148       0.00000000
Si       2.84142723      -2.08599966       1.61206877       0.00000000
