10
Lattice="16.28999089631971 0.0 0.0 0.0 16.28999089631971 0.0 0.0 0.0 34.642051614445585" Properties=species:S:1:pos:R:3:initial_magmoms:R:1 pbc="T T T"
Si      -1.27617652       1.78100199       0.90131740       0.00000000
Si       1.93606650       0.47470689      -1.29377742       0.00000000
Si       0.94607433      -0.47216565       2.14011786       0.00000000
Si      -1.12789842      -1.74399111      -1.20602906       0.00000000
Si       2.66694993      -1.92322998       1.47873144       0.00000000
Si      -2.74847228      -2.33333073       0.43991966       0.00000000
Si       1.54735452       2.83556772      -1.66146837       0.00000000
Si       0.34365384       3.16990368       1.84919375       0.00000000
Si       0.64141875      -3.36165327      -1.69607579       0.00000000
Si       3.79193733      -0.66875337      -0.18966534       0.00000000
