10
Lattice="16.28999089631971 0.0 0.0 0.0 16.28999089631971 0.0 0.0 0.0 34.642051614445585" Properties=species:S:1:pos:R:3:initial_magmoms:R:1 pbc="T T T"
Si      -1.12462902       0.93328668       1.85251939       0.00000000
Si      -1.38871110       0.55262196      -1.83374338       0.00000000
Si      -0.13999626      -2.36332062       0.21561225       0.00000000
Si       2.19709746       0.93072915      -0.10531190       0.00000000
Si      -0.01394424       1.84199175      -3.20858326       0.00000000
Si      -2.41661661       2.69216685       0.90339593       0.00000000
Si       3.16996884       0.06227667      -2.04772746       0.00000000
Si      -3.26282903       1.70267967      -1.05783028       0.00000000
Si       0.96816357      -2.89250127       2.31544138       0.00000000
Si      -2.13467581      -0.74909565       3.14498041       0.00000000
