10
Lattice="16.28999089631971 0.0 0.0 0.0 16.28999089631971 0.0 0.0 0.0 34.642051614445585" Properties=species:S:1:pos:R:3:initial_magmoms:R:1 pbc="T T T"
Si      -1.55833954      -1.39834989      -1.01248381       0.00000000
Si       1.01004679       1.68238233      -1.29246103       0.00000000
Si      -0.69534421       1.43788572       1.72940147       0.00000000
Si       2.08132606      -0.99250083       1.01019743       0.00000000
Si       1.31160727       2.79013491       1.70369705       0.00000000
Si      -1.62850057      -3.22051019       0.52759874       0.00000000
Si      -0.35817800      -2.21035752      -2.89289006       0.00000000
Si       3.25969579       1.08636381       1.36867358       0.00000000
Si      -0.19653559       0.18272493       3.74538089       0.00000000
Si       3.10283938      -2.14340562      -0.82953903       0.00000000
