10
Lattice="16.28999089631971 0.0 0.0 0.0 16.28999089631971 0.0 0.0 0.0 34.642051614445585" Properties=species:S:1:pos:R:3:initial_magmoms:R:1 pbc="T T T"
Si      -1.35713553      -1.35720135       1.35731098       0.00000000
Si       1.35804813       1.35777150       1.35696456       0.00000000
Si      -1.35643506       1.35668007      -1.36022092       0.00000000
Si       1.35850914      -1.35682668      -1.35911237       0.00000000
Si       2.68565870       0.00635310      -2.72416586       0.00000000
Si      -2.70176100      -0.01480761      -2.70996954       0.00000000
Si      -2.71458123       0.00037467       2.71448340       0.00000000
Si       0.00036822      -2.71469592       2.71458732       0.00000000
Si      -2.71598217      -2.71373481      -0.00017321       0.00000000
Si      -2.71552605       2.71425609      -0.00024249       0.00000000
