10
Lattice="16.28999089631971 0.0 0.0 0.0 16.28999089631971 0.0 0.0 0.0 34.642051614445585" Properties=species:S:1:pos:R:3:initial_magmoms:R:1 pbc="T T T"
Si       1.35456237      -1.35426915      -1.35904309       0.00000000
Si       1.36262592       1.35358497       1.35755348       0.00000000
Si      -1.35988594       1.35995436      -1.35800382       0.00000000
Si      -1.37132315      -1.34154666       1.36753039       0.00000000
Si       0.16213437      -2.54547540       2.66262422       0.00000000
Si      -0.04399929       2.59674003       2.70769355       0.00000000
Si       2.71140534      -2.71402803      -0.00013857       0.00000000
Si       2.71122615       0.00242721      -2.71521088       0.00000000
Si       2.71238274       2.71448415       0.00308314       0.00000000
Si      -0.00272043      -2.71300176      -2.71534945       0.00000000
