10
Lattice="16.28999089631971 0.0 0.0 0.0 16.28999089631971 0.0 0.0 0.0 34.642051614445585" Properties=species:S:1:pos:R:3:initial_magmoms:R:1 pbc="T T T"
Si      -0.23579123      -1.29059154      -2.00653803       0.00000000
Si      -1.71515522      -0.45157509       1.64480553       0.00000000
Si       2.24509757      -0.72106056       0.59747180       0.00000000
Si      -0.32665685       2.33580681      -0.60647874       0.00000000
Si       2.44026806       0.60268113       2.48996814       0.00000000
Si      -0.57843347      -1.77562629       3.16025757       0.00000000
Si      -3.50130485      -1.43843958       0.41521986       0.00000000
Si       1.65507377      -0.80280378      -3.34354876       0.00000000
Si      -2.93165984       0.98191233      -2.31949450       0.00000000
Si       1.75651160       3.43772757      -0.23546216       0.00000000
