10
Lattice="16.28999089631971 0.0 0.0 0.0 16.28999089631971 0.0 0.0 0.0 34.642051614445585" Properties=species:S:1:pos:R:3:initial_magmoms:R:1 pbc="T T T"
Si      -1.28481903      -0.84196494      -1.85709214       0.00000000
Si       1.83302899      -1.27747809       0.96176782       0.00000000
Si      -1.48890015      -0.03025053       2.01415929       0.00000000
Si       1.21549138       1.69207488      -1.89648018       0.00000000
Si      -2.63969091      -2.33181576      -0.57640942       0.00000000
Si       0.12955763      -2.11302477      -3.31081201       0.00000000
Si       3.21727174      -2.34028656      -0.67919244       0.00000000
Si      -0.41012356      -0.55537497       4.11610159       0.00000000
Si      -2.28556260       3.44515648      -0.83681387       0.00000000
Si      -2.93771646       1.89141561       2.39477172       0.00000000
