10
Lattice="16.28999089631971 0.0 0.0 0.0 16.28999089631971 0.0 0.0 0.0 34.51877397758722" Properties=species:S:1:pos:R:3:initial_magmoms:R:1 pbc="T T T"
Si       0.15253956      -1.87445772      -1.44785626       0.00000000
Si      -0.22481829      -0.65619378       2.29153009       0.00000000
Si       2.23977726       0.93708225      -0.04622066       0.00000000
Si      -2.19642305       1.01142981      -0.52623900       0.00000000
Si      -2.43072050      -1.49907096       2.50050687       0.00000000
Si      -1.64166385      -3.36554658      -0.85648030       0.00000000
Si      -0.25982550       1.34366436       3.63634776       0.00000000
Si       2.83131603       1.63579293       2.11493194       0.00000000
Si       1.52945181      -2.15938611       2.89988930       0.00000000
Si      -2.68418670       2.77284700       0.97360256       0.00000000
