10
Lattice="16.28999089631971 0.0 0.0 0.0 16.28999089631971 0.0 0.0 0.0 34.51877397758722" Properties=species:S:1:pos:R:3:initial_magmoms:R:1 pbc="T T T"
Si      -2.20590221      -0.84287718       0.20897677       0.00000000
Si       1.75427010      -1.50319233       0.60835921       0.00000000
Si       0.22481829       0.65619378      -2.29153009       0.00000000
Si      -0.03500721       1.99985814       1.34481767       0.00000000
Si       3.46911840       0.18290412       0.88026375       0.00000000
Si      -2.18242017       2.77213446       0.91167585       0.00000000
Si      -1.96106351      -2.74331745       1.55448482       0.00000000
Si       2.46459555       1.59327603      -2.33775076       0.00000000
Si      -1.97160476       1.66762359      -2.81776909       0.00000000
Si       3.05613432       2.29198671      -0.17659815       0.00000000
