10
Lattice="16.28999089631971 0.0 0.0 0.0 16.28999089631971 0.0 0.0 0.0 34.51877397758722" Properties=species:S:1:pos:R:3:initial_magmoms:R:1 pbc="T T T"
Si       0.24483870      -1.90044027       1.34550804       0.00000000
Si      -0.87583089      -0.81746478      -2.02152409       0.00000000
Si       2.20590221       0.84287718      -0.20897677       0.00000000
Si      -1.28707194       1.67814693       1.12027292       0.00000000
Si       0.02348204       3.61501164       0.70269907       0.00000000
Si      -1.66436463       1.04371659      -3.14573215       0.00000000
Si       2.17089499       2.84273532       1.13584089       0.00000000
Si      -2.58263193      -2.34276264      -1.45797027       0.00000000
Si       2.43072050       1.49907096      -2.50050687       0.00000000
Si      -1.34442903       1.06199397       3.41287309       0.00000000
