10
Lattice="16.28999089631971 0.0 0.0 0.0 16.28999089631971 0.0 0.0 0.0 34.51877397758722" Properties=species:S:1:pos:R:3:initial_magmoms:R:1 pbc="T T T"
Si       1.62378720       0.94832235      -1.41165437       0.00000000
Si      -1.35562122      -1.16260427      -1.53371283       0.00000000
Si      -1.48774941       1.24323651       1.34412729       0.00000000
Si       1.22925969      -1.50217144       1.35093095       0.00000000
Si       0.39029211      -1.59717653      -3.07742778       0.00000000
Si       2.58276321       2.55060675       0.06296573       0.00000000
Si      -0.12841407       2.59115256       2.72243509       0.00000000
Si       2.59533909      -0.12940287       2.72108886       0.00000000
Si      -2.67504606      -2.67207218      -0.10217563       0.00000000
Si       2.49940728      -2.93194655      -0.14716397       0.00000000
