10
Lattice="16.28999089631971 0.0 0.0 0.0 16.28999089631971 0.0 0.0 0.0 34.51877397758722" Properties=species:S:1:pos:R:3:initial_magmoms:R:1 pbc="T T T"
Si      -0.16000038      -1.34046242       1.96035679       0.00000000
Si      -1.81583001       0.71437189      -1.48520560       0.00000000
Si       0.61859646       2.31697557       0.75723877       0.00000000
Si       1.10128545      -1.74256478      -1.59908310       0.00000000
Si      -2.29185639      -1.98510659       1.16190258       0.00000000
Si       1.53210708       2.62915713      -1.56604861       0.00000000
Si      -0.19901493       1.78386903      -2.95280661       0.00000000
Si       1.78704558      -2.73724847       1.80547096       0.00000000
Si      -3.34353879       1.81977219      -0.01839852       0.00000000
Si      -1.74317661       3.26059011       1.12251664       0.00000000
