10
Lattice="16.28999089631971 0.0 0.0 0.0 16.28999089631971 0.0 0.0 0.0 34.51877397758722" Properties=species:S:1:pos:R:3:initial_magmoms:R:1 pbc="T T T"
Si       1.34112312      -1.27333554      -1.46874013       0.00000000
Si       1.73112201       0.84528810       1.38675800       0.00000000
Si      -1.61681508      -1.06949714       1.46760101       0.00000000
Si      -1.35990549       1.43619156      -1.42973390       0.00000000
Si       0.19901493      -1.78386903       2.95280661       0.00000000
Si       2.75499738      -2.47807113      -0.11294549       0.00000000
Si      -2.66579334      -2.61233933       0.01580961       0.00000000
Si       2.67343335       2.72119563       0.16997054       0.00000000
Si       0.81761139       0.53310654       3.71004538       0.00000000
Si      -0.00526167      -2.63067929      -2.81593960       0.00000000
