10
Lattice="16.28999089631971 0.0 0.0 0.0 16.28999089631971 0.0 0.0 0.0 34.51877397758722" Properties=species:S:1:pos:R:3:initial_magmoms:R:1 pbc="T T T"
Si      -1.80801081       1.31898501       0.70311330       0.00000000
Si       0.00547344      -1.98136899       1.31437209       0.00000000
Si       1.65786588       1.78360839      -0.25913258       0.00000000
Si      -0.90148860      -0.74608200      -2.45376842       0.00000000
Si      -0.23408730      -1.02029157       3.43513771       0.00000000
Si      -1.28218590       3.42490734      -0.30304049       0.00000000
Si      -3.80234664       0.22778307       0.27621938       0.00000000
Si       1.01367783       1.03687479       3.54121396       0.00000000
Si       0.68833395       3.69426249       0.85002528       0.00000000
Si      -3.26326167       0.19753254      -2.08849055       0.00000000
