10
Lattice="16.28999089631971 0.0 0.0 0.0 16.28999089631971 0.0 0.0 0.0 34.51877397758722" Properties=species:S:1:pos:R:3:initial_magmoms:R:1 pbc="T T T"
Si       0.28856106       0.38932448       2.28697361       0.00000000
Si       2.02486329      -0.80150791      -0.87142694       0.00000000
Si      -1.87809039      -1.41543877      -0.15281470       0.00000000
Si      -0.58148784       2.04721969      -1.16556157       0.00000000
Si       3.32330661       0.84407287       0.29831141       0.00000000
Si       1.97570007       2.00144479       1.99042266       0.00000000
Si      -0.34192710       1.08614227      -3.28632719       0.00000000
Si      -3.34062288      -0.04510864       1.06756272       0.00000000
Si       1.64626740      -0.24766827      -3.17876663       0.00000000
Si      -1.98389394       0.82662628       2.88597823       0.00000000
