10
Lattice="16.28999089631971 0.0 0.0 0.0 16.28999089631971 0.0 0.0 0.0 34.51877397758722" Properties=species:S:1:pos:R:3:initial_magmoms:R:1 pbc="T T T"
Si      -1.04897826      -1.54284219      -1.45179141       0.00000000
Si      -1.52770878       1.10540030       1.46680708       0.00000000
Si       1.61681508       1.06949714      -1.46760101       0.00000000
Si       1.81583001      -0.71437189       1.48520560       0.00000000
Si      -1.36997271      -3.22282730       0.37338979       0.00000000
Si       0.07265340       2.54621822       2.60772224       0.00000000
Si       2.43442647       1.60260368       2.24244437       0.00000000
Si      -0.47602638      -2.69947847       2.64710818       0.00000000
Si      -2.47337423      -0.21082844      -2.89229517       0.00000000
Si       2.91711546      -2.45693666      -0.11387750       0.00000000
