10
Lattice="16.28999089631971 0.0 0.0 0.0 16.28999089631971 0.0 0.0 0.0 34.51877397758722" Properties=species:S:1:pos:R:3:initial_magmoms:R:1 pbc="T T T"
Si       1.35562122       1.16260427       1.53371283       0.00000000
Si       1.74591333      -0.43457226      -1.54371495       0.00000000
Si      -1.61096697       1.10369800      -1.44802886       0.00000000
Si      -1.31942484      -1.50946791       1.43153720       0.00000000
Si      -2.56425777      -1.11039549      -1.70698885       0.00000000
Si       2.97940842       2.11092662       0.12205845       0.00000000
Si      -0.13212819       2.40584078       2.87784012       0.00000000
Si      -3.02246289       2.41642928       0.02951357       0.00000000
Si       2.58488091      -0.33956717       2.88464377       0.00000000
Si      -2.30164668      -3.16976100       0.06026981       0.00000000
