10
Lattice="16.28999089631971 0.0 0.0 0.0 16.28999089631971 0.0 0.0 0.0 34.51877397758722" Properties=species:S:1:pos:R:3:initial_magmoms:R:1 pbc="T T T"
Si      -1.64459148      -1.62964671       0.54132372       0.00000000
Si       1.39942503       0.48793437       1.86045940       0.00000000
Si       1.40923161      -0.36707886      -1.91327315       0.00000000
Si      -1.20137935       2.07340749      -0.20697468       0.00000000
Si       1.59925446       1.94403231      -2.48901211       0.00000000
Si      -0.16472285       1.41263622       3.38156454       0.00000000
Si      -1.15682783      -3.39106391      -0.95851785       0.00000000
Si      -1.57308620       2.75095746       2.04144143       0.00000000
Si      -1.36764324      -2.28655304       2.77092709       0.00000000
Si      -0.04600296       3.48666273      -1.68645016       0.00000000
