10
Lattice="16.28999089631971 0.0 0.0 0.0 16.28999089631971 0.0 0.0 0.0 34.51877397758722" Properties=species:S:1:pos:R:3:initial_magmoms:R:1 pbc="T T T"
Si      -1.35345465       1.35755973      -1.36066179       0.00000000
Si      -1.35149985      -1.35998694       1.36646095       0.00000000
Si       1.36115982      -1.35887922      -1.36090342       0.00000000
Si       1.36560699       1.37233476       1.36062727       0.00000000
Si       0.05708016      -2.70656721       2.69398470       0.00000000
Si       2.75740830       0.05391990       2.66878598       0.00000000
Si      -2.71155195      -0.00105885      -2.71759556       0.00000000
Si       2.71500543       2.71495656      -0.00317573       0.00000000
Si      -2.71575477       2.71534752      -0.00245083       0.00000000
Si      -2.71365336      -2.71754667       0.00079393       0.00000000
