10
Lattice="16.28999089631971 0.0 0.0 0.0 16.28999089631971 0.0 0.0 0.0 34.51877397758722" Properties=species:S:1:pos:R:3:initial_magmoms:R:1 pbc="T T T"
Si      -1.74685815      -1.53062469       0.31550177       0.00000000
Si       1.20979314       0.29931246       1.98648752       0.00000000
Si      -1.13186178       2.03678757      -0.46693572       0.00000000
Si       1.51568676      -1.18229562      -1.47643783       0.00000000
Si      -1.97190450      -1.33662708       2.65798160       0.00000000
Si      -1.69518627       1.67624100      -2.73088529       0.00000000
Si       0.71065125       3.53678706      -0.38647241       0.00000000
Si      -0.76957218      -3.66435405      -0.06444659       0.00000000
Si       1.48458915      -3.38981868      -0.62820752       0.00000000
Si       3.28111551       1.21415886       1.41820462       0.00000000
