10
Lattice="16.28999089631971 0.0 0.0 0.0 16.28999089631971 0.0 0.0 0.0 34.51877397758722" Properties=species:S:1:pos:R:3:initial_magmoms:R:1 pbc="T T T"
Si       0.78781698      -0.60312096       2.23205421       0.00000000
Si      -0.43882002       2.27491479       0.91819990       0.00000000
Si      -2.14764102      -1.29261150       0.07490578       0.00000000
Si       0.71803062       1.77588693      -1.85800857       0.00000000
Si       1.19969334      -1.67189157      -1.81268539       0.00000000
Si       2.63839356      -2.13731316       1.04291630       0.00000000
Si      -0.50448501       3.56888392      -1.09100098       0.00000000
Si       3.80985633      -0.32822721      -0.04214745       0.00000000
Si      -3.85800957       0.03381804      -0.80421885       0.00000000
Si       2.87831268       2.45054381      -1.21885859       0.00000000
