10
Lattice="16.28999089631971 0.0 0.0 0.0 16.28999089631971 0.0 0.0 0.0 34.51877397758722" Properties=species:S:1:pos:R:3:initial_magmoms:R:1 pbc="T T T"
Si      -1.35576783      -1.34169508       1.37568092       0.00000000
Si      -1.22925969       1.50217144      -1.35093095       0.00000000
Si       1.36607940       1.37276856       1.37015791       0.00000000
Si       1.27014759      -1.42977511      -1.49809492       0.00000000
Si       2.26090539       0.42647920      -2.73572970       0.00000000
Si       0.39452751       2.45049379      -2.76258532       0.00000000
Si      -2.69244378      -2.68192225      -0.01297561       0.00000000
Si       2.72212416      -2.69469361      -0.01483618       0.00000000
Si       0.00410508      -2.69464474       2.73054356       0.00000000
Si      -2.71075374       0.01642895       2.73171719       0.00000000
