10
Lattice="16.28999089631971 0.0 0.0 0.0 16.28999089631971 0.0 0.0 0.0 34.51877397758722" Properties=species:S:1:pos:R:3:initial_magmoms:R:1 pbc="T T T"
Si       1.35785295       1.35645201       1.35714088       0.00000000
Si       1.35736425      -1.35733167      -1.35689924       0.00000000
Si      -1.35765747       1.35729909      -1.35689924       0.00000000
Si      -1.35835794      -1.35949172       1.35869422       0.00000000
Si      -0.00034209       2.71350675      -2.71331523       0.00000000
Si       2.71410948       0.00068418      -2.71428175       0.00000000
Si       0.00013032      -2.71460537      -2.71407464       0.00000000
Si      -2.71503801      -2.71447786      -0.00017259       0.00000000
Si       0.00236205      -2.71408660       2.71562799       0.00000000
Si      -2.71502172       2.71520091       0.00065586       0.00000000
