10
Lattice="16.28999089631971 0.0 0.0 0.0 16.28999089631971 0.0 0.0 0.0 34.51877397758722" Properties=species:S:1:pos:R:3:initial_magmoms:R:1 pbc="T T T"
Si      -1.41387426       1.20473558      -1.35579464       0.00000000
Si      -1.45469700      -1.04836268       1.46666901       0.00000000
Si       0.91960308       1.65102783       1.43843263       0.00000000
Si       1.30298823      -1.50314690      -1.32880095       0.00000000
Si       1.87398531      -0.32489120       2.41282913       0.00000000
Si       0.32483889      -2.11726361       2.64041153       0.00000000
Si       2.62166373       2.52886335       0.08753966       0.00000000
Si      -2.75499738       2.47807113       0.11294549       0.00000000
Si      -0.04829985       2.56608600      -2.69684976       0.00000000
Si      -1.02387537       3.32335923       1.49970349       0.00000000
