10
Lattice="16.28999089631971 0.0 0.0 0.0 16.28999089631971 0.0 0.0 0.0 34.51877397758722" Properties=species:S:1:pos:R:3:initial_magmoms:R:1 pbc="T T T"
Si       1.36373364      -1.40783067      -1.29029523       0.00000000
Si      -1.34744364      -1.36728486       1.36917413       0.00000000
Si       1.37222073       1.34425080       1.37152141       0.00000000
Si      -1.32857982       1.32592455      -1.55886525       0.00000000
Si      -2.69887833       2.70757719      -0.02816388       0.00000000
Si       2.74525596       2.67085953       0.02310688       0.00000000
Si      -2.70677898      -2.71520091      -0.00913367       0.00000000
Si       0.01422117       2.70202230       2.72821354       0.00000000
Si      -2.70120780      -0.01308087       2.72904199       0.00000000
Si       0.01264104      -2.72911257       2.72721249       0.00000000
