10
Lattice="16.28999089631971 0.0 0.0 0.0 16.28999089631971 0.0 0.0 0.0 34.51877397758722" Properties=species:S:1:pos:R:3:initial_magmoms:R:1 pbc="T T T"
Si       1.35700587      -1.35733167       1.35758962       0.00000000
Si       1.35716877       1.35791811      -1.35714088       0.00000000
Si      -1.35749457      -1.35726651      -1.35765866       0.00000000
Si      -1.35791811       1.35754344       1.35700280       0.00000000
Si      -0.00021177      -2.71428867       2.71448887       0.00000000
Si       2.71417464      -2.71474479      -0.00027615       0.00000000
Si       2.71485882       2.71420722      -0.00003452       0.00000000
Si       0.00050499      -2.71503801      -2.71435079       0.00000000
Si       2.71474479       0.00017919       2.71466146       0.00000000
Si       2.71516833       0.00197109      -2.71514472       0.00000000
