10
Lattice="16.28999089631971 0.0 0.0 0.0 16.28999089631971 0.0 0.0 0.0 34.51877397758722" Properties=species:S:1:pos:R:3:initial_magmoms:R:1 pbc="T T T"
Si       1.35769005       1.35628911       1.35710636       0.00000000
Si       1.35799956      -1.35594702      -1.35800385       0.00000000
Si      -1.35716877      -1.35791811       1.35714088       0.00000000
Si      -1.35834165       1.35466011      -1.36231870       0.00000000
Si       0.00008145       2.71443528       2.71386753       0.00000000
Si      -2.71508688      -0.00037467       2.71414368       0.00000000
Si       2.71489140       2.71445157      -0.00065586       0.00000000
Si       2.71505430      -0.00055386       2.71431627       0.00000000
Si      -2.71466334      -2.71518462      -0.00051778       0.00000000
Si       2.71440270      -2.71554300      -0.00041423       0.00000000
