10
Lattice="16.28999089631971 0.0 0.0 0.0 16.28999089631971 0.0 0.0 0.0 34.51877397758722" Properties=species:S:1:pos:R:3:initial_magmoms:R:1 pbc="T T T"
Si       1.36051768       1.35479043       1.38890507       0.00000000
Si      -1.35413492      -1.36472733       1.38907766       0.00000000
Si       1.30117647      -1.42071606      -1.40523591       0.00000000
Si      -1.30707311       1.45251414      -1.53410147       0.00000000
Si      -2.69188601       2.70568755       0.02644485       0.00000000
Si      -2.72213654      -2.70254358       0.02782215       0.00000000
Si       2.69915006       2.72758131       0.01994496       0.00000000
Si      -0.22447229      -2.59356348      -2.82657971       0.00000000
Si       2.72101124      -2.72712519       0.00725930       0.00000000
Si       0.00432809       2.70871749       2.75074050       0.00000000
