10
Lattice="16.28999089631971 0.0 0.0 0.0 16.28999089631971 0.0 0.0 0.0 34.51877397758722" Properties=species:S:1:pos:R:3:initial_magmoms:R:1 pbc="T T T"
Si       0.97169850       0.24092910       2.12670285       0.00000000
Si       1.63722645      -0.95475690      -1.44005502       0.00000000
Si      -0.46856556       2.31637284      -0.49983213       0.00000000
Si      -1.80356364      -1.63502730      -0.20410962       0.00000000
Si       0.38918439      -0.68390307      -3.47397135       0.00000000
Si       0.94060089      -1.96659396       2.97493316       0.00000000
Si      -3.66797043      -0.30059937      -1.05672382       0.00000000
Si       1.61332902       3.46191822      -0.48833737       0.00000000
Si       3.23325549       0.89619435       1.88924807       0.00000000
Si      -0.54398826       1.42322472       3.60314068       0.00000000
