10
Lattice="16.28999089631971 0.0 0.0 0.0 16.28999089631971 0.0 0.0 0.0 34.51877397758722" Properties=species:S:1:pos:R:3:initial_magmoms:R:1 pbc="T T T"
Si       1.35604476       1.35669636       1.35689924       0.00000000
Si      -1.35791811       1.35783666      -1.35665761       0.00000000
Si       1.35760860      -1.35814617      -1.35676117       0.00000000
Si      -1.35806472      -1.35685926       1.35845259       0.00000000
Si      -0.00008145      -2.71443528      -2.71386753       0.00000000
Si      -2.71463076       0.00309510      -2.71438531       0.00000000
Si      -0.00050499       2.71554300      -2.71376397       0.00000000
Si       2.71480995       0.00001629      -2.71452338       0.00000000
Si       2.71453302       2.71503082       0.00041423       0.00000000
Si       2.71497285      -2.71498914       0.00044874       0.00000000
