10
Lattice="16.28999089631971 0.0 0.0 0.0 16.28999089631971 0.0 0.0 0.0 34.51877397758722" Properties=species:S:1:pos:R:3:initial_magmoms:R:1 pbc="T T T"
Si      -1.35149985      -1.36303317      -1.37105195       0.00000000
Si       1.36930482       1.35157879      -1.37098291       0.00000000
Si       1.29003768      -1.36700793       1.43687929       0.00000000
Si      -1.30298823       1.50314690       1.32880095       0.00000000
Si      -2.70089829      -2.70565497      -0.00724895       0.00000000
Si       2.70547578       2.70285213      -0.00749058       0.00000000
Si       2.71678104      -2.69669547      -0.00738702       0.00000000
Si       2.57761557       0.02925684       2.83854941       0.00000000
Si      -2.71686249       2.70788248      -0.02699370       0.00000000
Si       0.00858483       2.70617366      -2.72791668       0.00000000
