10
Lattice="16.28999089631971 0.0 0.0 0.0 16.28999089631971 0.0 0.0 0.0 34.51877397758722" Properties=species:S:1:pos:R:3:initial_magmoms:R:1 pbc="T T T"
Si      -1.35647319      -1.35615879       1.35762414       0.00000000
Si      -1.35742615       1.35734796      -1.35745155       0.00000000
Si       1.35754344      -1.35729909      -1.35765866       0.00000000
Si       1.35837423       1.35913986       1.35679569       0.00000000
Si      -2.71382415       0.00001629      -2.71524828       0.00000000
Si       0.00040725       2.71492398      -2.71424723       0.00000000
Si      -2.71496020       2.71428867       0.00037971       0.00000000
Si      -2.71505662      -2.71437012       0.00027615       0.00000000
Si       0.00076563      -2.71480995      -2.71466146       0.00000000
Si       2.71547784      -0.00001629      -2.71410916       0.00000000
