10
Lattice="16.28999089631971 0.0 0.0 0.0 16.28999089631971 0.0 0.0 0.0 34.51877397758722" Properties=species:S:1:pos:R:3:initial_magmoms:R:1 pbc="T T T"
Si       1.54914642       1.79237241      -0.22758240       0.00000000
Si      -1.77953589       1.06890093      -1.17374253       0.00000000
Si      -1.09377576       0.07421724       2.23081153       0.00000000
Si       1.32305751      -2.50791066      -1.31299134       0.00000000
Si      -0.32483889       2.11726361      -2.64041153       0.00000000
Si      -1.48118454      -2.32135758       2.09522171       0.00000000
Si       2.26818702      -0.75289122      -2.53233319       0.00000000
Si       3.55576491       0.64337355      -1.13066307       0.00000000
Si      -2.97092133      -0.61427961      -2.58317938       0.00000000
Si       0.59476419       3.76829144      -1.20197890       0.00000000
