10
Lattice="16.28999089631971 0.0 0.0 0.0 16.28999089631971 0.0 0.0 0.0 34.51877397758722" Properties=species:S:1:pos:R:3:initial_magmoms:R:1 pbc="T T T"
Si      -1.86945669       1.39118229       0.31149759       0.00000000
Si       0.91077390      -0.23196960       2.16046223       0.00000000
Si       1.63297476       1.53156951      -0.81526486       0.00000000
Si      -0.30217950      -2.43615321      -0.72451495       0.00000000
Si       3.50609670       0.00788436      -0.80587575       0.00000000
Si      -3.01913973       1.11537630      -1.72759657       0.00000000
Si       1.48436109      -2.56231926       2.22414941       0.00000000
Si       1.70114841      -3.40720011       0.01235773       0.00000000
Si       2.69110800       1.29831300       2.42718895       0.00000000
Si      -3.46980258       0.22328703       1.67174516       0.00000000
