10
Lattice="16.28999089631971 0.0 0.0 0.0 16.28999089631971 0.0 0.0 0.0 34.51877397758722" Properties=species:S:1:pos:R:3:initial_magmoms:R:1 pbc="T T T"
Si       1.14258060       0.92574441      -1.75821474       0.00000000
Si      -2.26025379      -0.42148746      -0.25015769       0.00000000
Si       0.73976148       0.72148410       2.10236710       0.00000000
Si       0.61437735      -2.25024847      -0.21860752       0.00000000
Si      -0.46335276      -2.68648327       1.88234432       0.00000000
Si       3.30678759       0.68211117      -0.81512678       0.00000000
Si       2.93508074       1.35966114       1.43328933       0.00000000
Si      -2.70951570      -1.89848547       1.52562711       0.00000000
Si      -3.17399247       1.71390348      -0.52333942       0.00000000
Si      -2.38378086      -1.70987985      -2.29132298       0.00000000
