10
Lattice="16.28999089631971 0.0 0.0 0.0 16.28999089631971 0.0 0.0 0.0 34.51877397758722" Properties=species:S:1:pos:R:3:initial_magmoms:R:1 pbc="T T T"
Si       1.14653160      -1.32242939       1.59880695       0.00000000
Si       1.58431068       0.65714512      -1.65493451       0.00000000
Si      -1.61718975      -1.62061784      -0.78602744       0.00000000
Si      -0.52437510       1.29096621       2.67206527       0.00000000
Si      -2.72541474       2.52646497       0.42855082       0.00000000
Si       2.43589976       2.73382038      -0.80967281       0.00000000
Si      -0.54058365      -3.07267586      -2.37654988       0.00000000
Si       2.00257761      -3.33678563       0.53828606       0.00000000
Si       0.50413414      -0.53834282       3.88005044       0.00000000
Si      -3.63737781      -0.52628822      -1.55365637       0.00000000
