10
Lattice="16.28999089631971 0.0 0.0 0.0 16.28999089631971 0.0 0.0 0.0 34.51877397758722" Properties=species:S:1:pos:R:3:initial_magmoms:R:1 pbc="T T T"
Si       1.75207814       1.51604514       0.27611583       0.00000000
Si       0.27368570      -2.35038636      -0.09654906       0.00000000
Si      -1.04682798       0.31425039       2.10253970       0.00000000
Si      -1.60392969       0.62727903      -1.71844909       0.00000000
Si      -2.84592816      -1.05787260       1.54274843       0.00000000
Si      -3.43753209       0.42438708      -0.18564207       0.00000000
Si      -1.92163356      -2.98856340       0.57252871       0.00000000
Si      -1.35133695       2.63370204       2.12773842       0.00000000
Si       0.70048533       3.38664213       1.27574556       0.00000000
Si       2.52445220       2.01246660      -1.82666550       0.00000000
