10
Lattice="16.28999089631971 0.0 0.0 0.0 16.28999089631971 0.0 0.0 0.0 34.51877397758722" Properties=species:S:1:pos:R:3:initial_magmoms:R:1 pbc="T T T"
Si       0.79245053      -1.91959731      -1.11968610       0.00000000
Si       1.52564877       1.17284742       1.42134380       0.00000000
Si      -1.22497542      -1.53282384       1.53484504       0.00000000
Si      -1.05334398       1.55303973      -1.95700847       0.00000000
Si       1.25263977       2.26504305      -1.63784770       0.00000000
Si       2.60529947       0.44766549      -2.42466908       0.00000000
Si       0.95106626      -1.06557777      -3.30158450       0.00000000
Si      -2.49766425      -0.10898010       2.85440186       0.00000000
Si       3.01430879       2.37408831       0.08146435       0.00000000
Si       0.22447229       2.59356348       2.82657971       0.00000000
