10
Lattice="16.28999089631971 0.0 0.0 0.0 16.28999089631971 0.0 0.0 0.0 34.51877397758722" Properties=species:S:1:pos:R:3:initial_magmoms:R:1 pbc="T T T"
Si      -0.97265961      -1.78168617      -1.14435461       0.00000000
Si       1.25318970      -1.37606517       1.41904343       0.00000000
Si      -1.47600432       1.34472321       1.39685475       0.00000000
Si       1.77743448       0.80055576      -1.47533464       0.00000000
Si      -1.95988248      -0.46781622      -2.89195140       0.00000000
Si       2.52594369       2.61495225      -0.09629017       0.00000000
Si       2.63800260      -2.62923858      -0.14150289       0.00000000
Si       2.59390557      -0.02070459       2.78364382       0.00000000
Si       0.81981054      -3.43930770      -1.52155531       0.00000000
Si      -0.12048084       2.69979057       2.78298796       0.00000000
