10
Lattice="16.28999089631971 0.0 0.0 0.0 16.28999089631971 0.0 0.0 0.0 34.51877397758722" Properties=species:S:1:pos:R:3:initial_magmoms:R:1 pbc="T T T"
Si       0.18639018       2.26955538      -0.76548876       0.00000000
Si      -0.53908497       0.03025053       2.36470993       0.00000000
Si      -1.60036218      -1.44081792      -1.14091516       0.00000000
Si       2.36177307      -0.94361454      -0.36527787       0.00000000
Si       1.45525086       1.12145247       2.79160385       0.00000000
Si      -0.07265340      -2.54621822      -2.60772224       0.00000000
Si      -0.72910782      -2.28086064       2.94044889       0.00000000
Si       1.74317661      -3.26059011      -1.12251664       0.00000000
Si       3.26326167      -0.19753254       2.08849055       0.00000000
Si      -1.75181031      -3.33569515       1.02016842       0.00000000
