10
Lattice="16.28999089631971 0.0 0.0 0.0 16.28999089631971 0.0 0.0 0.0 34.51877397758722" Properties=species:S:1:pos:R:3:initial_magmoms:R:1 pbc="T T T"
Si      -1.26814392       1.36286931      -1.43177051       0.00000000
Si       0.79537554       1.81300274       1.30829678       0.00000000
Si      -1.39600413      -1.31072598       1.41426948       0.00000000
Si       1.46706111      -1.35448092      -1.39915025       0.00000000
Si       0.75051288       0.50041644       3.36475389       0.00000000
Si       2.67292836       2.66941691       0.02223010       0.00000000
Si      -2.65494420       2.69202743      -0.00793932       0.00000000
Si      -2.68358202      -2.70699075       0.01259936       0.00000000
Si      -2.60431488       0.01159597      -2.79526284       0.00000000
Si       0.10971315      -2.70607851      -2.79481410       0.00000000
