10
Lattice="16.28999089631971 0.0 0.0 0.0 16.28999089631971 0.0 0.0 0.0 34.51877397758722" Properties=species:S:1:pos:R:3:initial_magmoms:R:1 pbc="T T T"
Si       1.35721764       1.35788553       1.35655406       0.00000000
Si      -1.35783340      -1.35757602       1.35679569       0.00000000
Si       1.35716877      -1.35553977      -1.36256033       0.00000000
Si      -1.35976051       1.36114353      -1.36142121       0.00000000
Si      -2.71423140      -2.71490769      -0.00100105       0.00000000
Si      -0.00040725      -2.71492398       2.71424723       0.00000000
Si       2.71494027      -0.00013032       2.71438531       0.00000000
Si      -2.71536745      -0.00063531       2.71462694       0.00000000
Si       2.71507059      -2.71494027       0.00013808       0.00000000
Si      -0.00039096       2.71521720       2.71514472       0.00000000
