10
Lattice="16.28999089631971 0.0 0.0 0.0 16.28999089631971 0.0 0.0 0.0 34.51877397758722" Properties=species:S:1:pos:R:3:initial_magmoms:R:1 pbc="T T T"
Si       1.35149985       1.35998694      -1.36646095       0.00000000
Si       1.40858001      -1.34658027       1.32752375       0.00000000
Si      -1.36215351      -1.35755973      -1.36566702       0.00000000
Si      -1.24476777       1.45306800       1.50215433       0.00000000
Si       2.38174461       0.34722135       2.60944818       0.00000000
Si      -0.27057690      -2.54026260       2.50444201       0.00000000
Si      -2.69470809       2.70751203       0.00438389       0.00000000
Si      -2.72248254      -2.69886204       0.00707635       0.00000000
Si       2.71265967       0.00110772      -2.72736437       0.00000000
Si      -0.00169416      -2.71207323      -2.72815831       0.00000000
