10
Lattice="16.28999089631971 0.0 0.0 0.0 16.28999089631971 0.0 0.0 0.0 34.51877397758722" Properties=species:S:1:pos:R:3:initial_magmoms:R:1 pbc="T T T"
Si       1.35727164       1.35759231       1.35638146       0.00000000
Si      -1.35837629      -1.35668007       1.35700280       0.00000000
Si       1.35719507      -1.35746199      -1.35772770       0.00000000
Si      -1.35735002       1.35769005      -1.35790029       0.00000000
Si       2.71020501       0.00195480       2.71576606       0.00000000
Si      -0.00115132      -2.71459818      -2.71410916       0.00000000
Si       2.71440783      -2.71445157       0.00062134       0.00000000
Si       2.71434267       0.00135207      -2.71504117       0.00000000
Si      -2.71419299      -0.00149868       2.71555895       0.00000000
Si      -2.71497491      -2.71487511      -0.00037971       0.00000000
