10
Lattice="16.28999089631971 0.0 0.0 0.0 16.28999089631971 0.0 0.0 0.0 34.395419527814205" Properties=species:S:1:pos:R:3:initial_magmoms:R:1 pbc="T T T"
Si       1.24087283      -1.43277622       1.41038153       0.00000000
Si      -1.47464478       1.28011870       1.40461685       0.00000000
Si      -1.14410860      -1.81047616      -1.13653777       0.00000000
Si       1.75868306       0.87659911      -1.50795936       0.00000000
Si       2.61451079       2.58392143      -0.04148778       0.00000000
Si       2.54485475      -2.76904492      -0.06124796       0.00000000
Si       2.58961967      -0.07592117       2.77201784       0.00000000
Si       0.56980628      -3.56450191      -1.28369945       0.00000000
Si      -0.12136050       2.64179980       2.77298091       0.00000000
Si      -2.83039632       2.61449776       0.02341641       0.00000000
