10
Lattice="16.28999089631971 0.0 0.0 0.0 16.28999089631971 0.0 0.0 0.0 34.395419527814205" Properties=species:S:1:pos:R:3:initial_magmoms:R:1 pbc="T T T"
Si      -1.35864790       1.40017437      -1.39992875       0.00000000
Si       1.31667183      -1.32082252      -1.58697115       0.00000000
Si      -0.70473798      -2.43925971       0.59903096       0.00000000
Si       0.89142138       1.08437643       2.21492867       0.00000000
Si      -0.98328069      -2.00132261       2.94521263       0.00000000
Si       2.70119151      -2.67192050      -0.11608461       0.00000000
Si      -2.82490496       2.54255949       0.10683223       0.00000000
Si       3.76623171      -0.58363812       0.37790269       0.00000000
Si       3.21289299       1.53834615       1.56588674       0.00000000
Si      -2.64640091      -0.09524763      -2.86919871       0.00000000
