10
Lattice="16.28999089631971 0.0 0.0 0.0 16.28999089631971 0.0 0.0 0.0 34.395419527814205" Properties=species:S:1:pos:R:3:initial_magmoms:R:1 pbc="T T T"
Si      -0.71114647       0.57275640       2.17045537       0.00000000
Si      -1.43108953       1.49149611      -1.16531746       0.00000000
Si       2.34646047       0.35517087      -0.25143066       0.00000000
Si      -0.78739507      -2.28527523      -0.11168199       0.00000000
Si      -3.38339132       0.15973974      -1.35397645       0.00000000
Si      -2.79643004      -2.06456202      -1.30571965       0.00000000
Si      -0.47946357      -3.15804456       2.04694135       0.00000000
Si      -1.37496722      -1.41408603       3.26226978       0.00000000
Si      -0.40723860       2.33343891      -3.05637869       0.00000000
Si      -2.88648116       1.43272179       2.15865774       0.00000000
