10
Lattice="16.28999089631971 0.0 0.0 0.0 16.28999089631971 0.0 0.0 0.0 34.395419527814205" Properties=species:S:1:pos:R:3:initial_magmoms:R:1 pbc="T T T"
Si       0.86690493       1.70414577      -1.35602783       0.00000000
Si       1.35161388      -1.30394934       1.43080554       0.00000000
Si      -0.85582773      -1.70732232      -1.46647158       0.00000000
Si      -1.38145716       1.39193163       1.44739102       0.00000000
Si      -2.61451079      -2.58392143       0.04148778       0.00000000
Si      -0.82973115      -0.22219560      -3.63255873       0.00000000
Si      -1.04392836       3.37797585      -1.24240751       0.00000000
Si       2.59822242       2.71023246       0.00319878       0.00000000
Si      -2.84022992       2.58431076       0.07316942       0.00000000
Si       2.70295083      -2.74090490      -0.09991531       0.00000000
