10
Lattice="16.28999089631971 0.0 0.0 0.0 16.28999089631971 0.0 0.0 0.0 34.395419527814205" Properties=species:S:1:pos:R:3:initial_magmoms:R:1 pbc="T T T"
Si       1.35620766       1.35736425      -1.35617775       0.00000000
Si       1.35684297      -1.35725749       1.35724401       0.00000000
Si      -1.35837423      -1.35575449      -1.35755357       0.00000000
Si      -1.35767376       1.35708732       1.35717522       0.00000000
Si      -2.71464705       0.00033395       2.71383451       0.00000000
Si      -0.00040725       2.71497285       2.71397209       0.00000000
Si       2.71443528       0.00019548       2.71459121       0.00000000
Si       0.00096111       2.71502172      -2.71421286       0.00000000
Si       2.71461447       2.71494027      -0.00017198       0.00000000
Si      -2.71502172      -2.71458908      -0.00017198       0.00000000
