10
Lattice="16.28999089631971 0.0 0.0 0.0 16.28999089631971 0.0 0.0 0.0 34.395419527814205" Properties=species:S:1:pos:R:3:initial_magmoms:R:1 pbc="T T T"
Si       1.32572907      -1.34445280      -1.35906697       0.00000000
Si      -1.39201308       1.38412872      -1.31510960       0.00000000
Si       1.62005679       1.07132814       1.39796821       0.00000000
Si      -1.45616310      -1.21115824       1.54882661       0.00000000
Si       0.99339678      -0.47397384       3.51370044       0.00000000
Si       2.68237656      -2.53149858       0.07763051       0.00000000
Si       3.47727969      -0.55923570       1.34183486       0.00000000
Si       2.69171073       0.01852173      -2.69409153       0.00000000
Si      -2.73518874      -2.64958072       0.09874930       0.00000000
Si      -0.02601513      -2.69549720      -2.69460746       0.00000000
