10
Lattice="16.28999089631971 0.0 0.0 0.0 16.28999089631971 0.0 0.0 0.0 34.395419527814205" Properties=species:S:1:pos:R:3:initial_magmoms:R:1 pbc="T T T"
Si       1.35524655      -1.35765747       1.35803511       0.00000000
Si      -1.35894438       1.35591444       1.35738159       0.00000000
Si       1.34855136       1.34509788      -1.38494954       0.00000000
Si      -1.34058555      -1.36080144      -1.38435106       0.00000000
Si       2.71195920      -2.71086288      -0.00478097       0.00000000
Si       2.71365336      -0.00008145       2.71404089       0.00000000
Si      -0.00096111       2.71482624       2.71404089       0.00000000
Si       2.71410948       2.71477737      -0.00574404       0.00000000
Si      -0.00096111      -2.71502172       2.71421286       0.00000000
Si      -2.71508688       2.71503801      -0.00357713       0.00000000
