10
Lattice="16.28999089631971 0.0 0.0 0.0 16.28999089631971 0.0 0.0 0.0 34.395419527814205" Properties=species:S:1:pos:R:3:initial_magmoms:R:1 pbc="T T T"
Si       1.35607734      -1.35601218      -1.36109630       0.00000000
Si      -1.35765747       1.35897696      -1.36006444       0.00000000
Si       1.36622601       1.35656604       1.36656518       0.00000000
Si      -1.36930482      -1.34793234       1.37647106       0.00000000
Si       0.02270826      -2.73206106       2.69158066       0.00000000
Si       2.71441899      -2.71353933      -0.00251087       0.00000000
Si       2.71469592       2.71533123      -0.00072230       0.00000000
Si      -2.71577106       2.71524978      -0.00041275       0.00000000
Si      -0.00118917      -2.71389771      -2.71789317       0.00000000
Si       2.71414206       0.00159642      -2.71772120       0.00000000
