10
Lattice="16.28999089631971 0.0 0.0 0.0 16.28999089631971 0.0 0.0 0.0 34.395419527814205" Properties=species:S:1:pos:R:3:initial_magmoms:R:1 pbc="T T T"
Si       1.67749533       0.21408318      -1.57152760       0.00000000
Si      -0.48205368       1.62109935       1.59711780       0.00000000
Si      -1.61165115      -0.65503719      -1.56991101       0.00000000
Si       1.18299609      -1.84878468       0.84605900       0.00000000
Si       2.86963011      -1.95546789      -0.97449157       0.00000000
Si      -2.14148340       2.90748807       0.49519113       0.00000000
Si      -0.57083418      -2.75001264      -2.36131566       0.00000000
Si      -0.56474172      -3.42360414       1.22420246       0.00000000
Si       1.55781270       2.80228725       1.91843999       0.00000000
Si      -0.92911644       0.53214543       3.66301104       0.00000000
