10
Lattice="16.28999089631971 0.0 0.0 0.0 16.28999089631971 0.0 0.0 0.0 34.395419527814205" Properties=species:S:1:pos:R:3:initial_magmoms:R:1 pbc="T T T"
Si       1.25582868       0.49801788       1.92456238       0.00000000
Si      -1.18299609       1.84878468      -0.84605900       0.00000000
Si      -1.74773781      -1.57481946       0.37814345       0.00000000
Si       1.68663402      -0.10668321      -1.82055057       0.00000000
Si       0.49449924       2.06286786      -2.41758660       0.00000000
Si      -1.75901049      -2.77526214      -1.65001799       0.00000000
Si       3.07436283      -1.89195318      -0.83161292       0.00000000
Si      -1.75383027      -0.90122796      -3.20737466       0.00000000
Si       3.11003793       1.80237447       1.16978887       0.00000000
Si      -2.79464724       1.19374749      -2.41597001       0.00000000
