10
Lattice="16.28999089631971 0.0 0.0 0.0 16.28999089631971 0.0 0.0 0.0 34.395419527814205" Properties=species:S:1:pos:R:3:initial_magmoms:R:1 pbc="T T T"
Si       1.72672371       1.14034887      -1.23489053       0.00000000
Si       1.35656604      -1.23136110       1.59408756       0.00000000
Si      -1.34025975       1.48138002       1.57818311       0.00000000
Si      -1.35540945      -1.57698603      -1.50613296       0.00000000
Si       2.64565890      -2.62868472       0.15021176       0.00000000
Si       3.48273684      -0.80109333      -1.09550837       0.00000000
Si      -2.74317084      -2.72171691       0.11887408       0.00000000
Si       0.01299942      -2.57774589       2.97708688       0.00000000
Si      -2.74859541       2.87156862       0.14371790       0.00000000
Si      -2.70128925       0.13567941       2.97361294       0.00000000
