10
Lattice="16.28999089631971 0.0 0.0 0.0 16.28999089631971 0.0 0.0 0.0 34.395419527814205" Properties=species:S:1:pos:R:3:initial_magmoms:R:1 pbc="T T T"
Si      -0.00518022      -1.87403418       1.55735668       0.00000000
Si       2.32147161       0.45396972      -0.64904193       0.00000000
Si      -1.04081697       2.09497545       0.79140465       0.00000000
Si      -0.89142138      -1.08437643      -2.21492867       0.00000000
Si       0.00609246      -0.67359150       3.58551812       0.00000000
Si       0.57083418       2.75001264       2.36131566       0.00000000
Si      -1.87470207      -3.08569904       0.73028396       0.00000000
Si       1.75383027       0.90122796       3.20737466       0.00000000
Si       3.44046429       0.79454475       1.38682409       0.00000000
Si       2.87481033      -1.66801455      -1.83702599       0.00000000
