10
Lattice="16.28999089631971 0.0 0.0 0.0 16.28999089631971 0.0 0.0 0.0 34.395419527814205" Properties=species:S:1:pos:R:3:initial_magmoms:R:1 pbc="T T T"
Si      -1.34846991      -1.35876519       1.36728748       0.00000000
Si       1.35778779      -1.35584928      -1.36109630       0.00000000
Si      -1.35746199       1.35894438      -1.36044279       0.00000000
Si       1.36669842       1.35166275       1.37729655       0.00000000
Si      -2.66253534       0.02461419       2.74100691       0.00000000
Si       2.71050939      -2.71357191      -0.00216691       0.00000000
Si      -2.71342530       2.71337643       0.00185735       0.00000000
Si       2.71384884       2.71520091       0.00058472       0.00000000
Si      -2.71469592      -2.71533123       0.00072230       0.00000000
Si      -0.00055386      -2.71373481      -2.71699889       0.00000000
