10
Lattice="16.28999089631971 0.0 0.0 0.0 16.28999089631971 0.0 0.0 0.0 34.395419527814205" Properties=species:S:1:pos:R:3:initial_magmoms:R:1 pbc="T T T"
Si       2.32253046       0.05996349       0.11880185       0.00000000
Si      -0.53849853       1.87222599      -1.34197244       0.00000000
Si      -1.01346606      -2.11106997      -0.52012782       0.00000000
Si      -0.32943267       1.40669037       2.14682571       0.00000000
Si      -2.94259954      -1.20360294      -1.52626320       0.00000000
Si       0.64252647       3.49646931      -0.21448996       0.00000000
Si       2.70572013       2.37452814      -0.26611751       0.00000000
Si      -2.78392027       0.84323556       2.35766974       0.00000000
Si      -3.73593720       0.45745578      -0.00890842       0.00000000
Si      -2.84874633       2.29796514      -1.18392540       0.00000000
