10
Lattice="16.28999089631971 0.0 0.0 0.0 16.28999089631971 0.0 0.0 0.0 34.395419527814205" Properties=species:S:1:pos:R:3:initial_magmoms:R:1 pbc="T T T"
Si      -0.42772653      -1.97011260       1.20721111       0.00000000
Si      -1.09307529       0.34459866      -2.06059634       0.00000000
Si      -0.52919694       1.51716915       1.74003085       0.00000000
Si       2.33346105       0.00902466      -0.51479653       0.00000000
Si      -0.17143596      -1.38495951      -3.38650611       0.00000000
Si      -0.43420995       2.56924807      -2.58698413       0.00000000
Si       1.63546713      -3.09205377       1.15558356       0.00000000
Si       3.31439598       0.87654861       1.47415411       0.00000000
Si       0.15716592       0.40943286       3.81132417       0.00000000
Si       0.73598220       3.47510402       1.55009924       0.00000000
