10
Lattice="16.28999089631971 0.0 0.0 0.0 16.28999089631971 0.0 0.0 0.0 34.395419527814205" Properties=species:S:1:pos:R:3:initial_magmoms:R:1 pbc="T T T"
Si      -1.36617714      -1.35050978       1.38729531       0.00000000
Si       1.34579835       1.37050244       1.38946222       0.00000000
Si      -1.35540945       1.28360833      -1.52082872       0.00000000
Si       1.45200915      -1.32332177      -1.52118987       0.00000000
Si       2.70387936      -2.70417620       0.01874551       0.00000000
Si       2.69765658       2.72805729       0.00967888       0.00000000
Si      -2.70674640       2.72056389       0.00989213       0.00000000
Si      -2.71968066      -2.71864172      -0.00620838       0.00000000
Si       2.70576900       0.00832974       2.74997380       0.00000000
Si      -0.01049076      -2.70769484       2.75196874       0.00000000
