10
Lattice="16.28999089631971 0.0 0.0 0.0 16.28999089631971 0.0 0.0 0.0 34.395419527814205" Properties=species:S:1:pos:R:3:initial_magmoms:R:1 pbc="T T T"
Si      -2.28850570       0.55830717       0.09895568       0.00000000
Si       0.13103676      -2.37521721       0.21913334       0.00000000
Si       1.12451499       0.85270005      -1.96917326       0.00000000
Si       0.90634302       1.02162735       2.07315068       0.00000000
Si      -0.37567998       3.18630771       1.09535714       0.00000000
Si       3.25366686       0.76033575       1.67072404       0.00000000
Si       2.46182625      -2.83849082       0.17094533       0.00000000
Si      -3.42323666      -0.61981821      -1.55962677       0.00000000
Si       3.72700539      -0.88055595      -0.01898628       0.00000000
Si       3.13417971      -0.34995807      -2.26105296       0.00000000
