10
Lattice="16.28999089631971 0.0 0.0 0.0 16.28999089631971 0.0 0.0 0.0 34.395419527814205" Properties=species:S:1:pos:R:3:initial_magmoms:R:1 pbc="T T T"
Si      -1.71198126      -1.37416806      -0.69791785       0.00000000
Si      -0.71037432       1.49530634       1.62631953       0.00000000
Si       2.33435700      -0.26357709      -0.01227917       0.00000000
Si      -0.12204468       1.65273290      -1.68217772       0.00000000
Si       1.29753108       2.73132638       1.53806083       0.00000000
Si       2.89935936       1.05723566       1.83554698       0.00000000
Si       2.80979694      -0.11460341      -2.28819096       0.00000000
Si       1.41835401       3.24335366      -0.79081993       0.00000000
Si      -2.37270366       2.21633432      -1.62631953       0.00000000
Si      -0.84659130      -2.68111476      -2.37576175       0.00000000
