10
Lattice="16.28999089631971 0.0 0.0 0.0 16.28999089631971 0.0 0.0 0.0 34.395419527814205" Properties=species:S:1:pos:R:3:initial_magmoms:R:1 pbc="T T T"
Si       0.84830175       1.12562434      -1.86175631       0.00000000
Si       0.23656338      -2.31092125      -0.32507129       0.00000000
Si      -2.34185040       0.28763416      -0.24912616       0.00000000
Si       0.98319924       0.71739694       2.06035557       0.00000000
Si       0.63330633       3.08247688       1.91988460       0.00000000
Si      -1.02104091       2.22798493      -2.76033715       0.00000000
Si      -2.81518893       1.92852586       1.44058416       0.00000000
Si       2.52682335      -2.71957219      -0.59982206       0.00000000
Si       1.55867607      -0.36968200      -3.48807584       0.00000000
Si       3.22571322      -0.20773660       2.15535577       0.00000000
