10
Lattice="16.28999089631971 0.0 0.0 0.0 16.28999089631971 0.0 0.0 0.0 34.395419527814205" Properties=species:S:1:pos:R:3:initial_magmoms:R:1 pbc="T T T"
Si      -1.06297527       0.03574026       2.09365036       0.00000000
Si      -1.57373193       0.36694854      -1.73789833       0.00000000
Si       2.06220326       1.26553752      -0.26102698       0.00000000
Si       0.48065928      -2.21917760      -0.89029154       0.00000000
Si       1.50451022      -1.37723479      -2.78135276       0.00000000
Si      -0.97473234      -2.27795192       2.43368366       0.00000000
Si      -0.04520865       0.25014924      -3.47528074       0.00000000
Si       3.24120830      -0.09578520      -1.79668014       0.00000000
Si       1.63206581       3.23708364      -1.51243623       0.00000000
Si       0.07175569       1.21386564       3.75223281       0.00000000
