10
Lattice="16.28999089631971 0.0 0.0 0.0 16.28999089631971 0.0 0.0 0.0 34.395419527814205" Properties=species:S:1:pos:R:3:initial_magmoms:R:1 pbc="T T T"
Si      -1.34688978      -1.35661491       1.33609082       0.00000000
Si      -1.35272160       1.35772263      -1.35892939       0.00000000
Si       1.36176255      -1.35653346      -1.35769115       0.00000000
Si       1.37889963       1.36946772       1.38482915       0.00000000
Si      -2.56759722       0.00441459       2.73966549       0.00000000
Si       0.00648342      -2.52195264       2.84040973       0.00000000
Si      -2.71050939       2.71357191       0.00216691       0.00000000
Si      -2.71106325      -0.00016290      -2.71483198       0.00000000
Si      -2.71078632      -2.71529865       0.00037835       0.00000000
Si       2.71544526       2.71371852       0.00061912       0.00000000
