10
Lattice="16.28999089631971 0.0 0.0 0.0 16.28999089631971 0.0 0.0 0.0 34.395419527814205" Properties=species:S:1:pos:R:3:initial_magmoms:R:1 pbc="T T T"
Si      -0.84225816       2.03807448      -0.79133586       0.00000000
Si      -1.54352637      -1.80947691      -0.21077525       0.00000000
Si       1.67482377      -0.55633608      -1.66590868       0.00000000
Si       0.92900241       0.16827570       2.24959928       0.00000000
Si       2.59403589      -1.42623837       1.82374935       0.00000000
Si       0.01935252      -3.57945057       0.25679635       0.00000000
Si       3.55798035      -0.76382181      -0.28837136       0.00000000
Si      -3.33826083      -0.96532911       1.14189417       0.00000000
Si      -0.85208103       1.69240068      -3.14267684       0.00000000
Si       1.57090986       1.28928834      -3.23313685       0.00000000
