10
Lattice="16.28999089631971 0.0 0.0 0.0 16.28999089631971 0.0 0.0 0.0 34.395419527814205" Properties=species:S:1:pos:R:3:initial_magmoms:R:1 pbc="T T T"
Si      -0.97697809      -0.88702538       1.85752567       0.00000000
Si       2.33078949      -0.46327361      -0.04818801       0.00000000
Si      -0.13103676       2.37521721      -0.21913334       0.00000000
Si      -1.29069580      -1.41825857      -1.42692917       0.00000000
Si      -0.71412102      -3.15084668       1.75963625       0.00000000
Si      -2.97928529       0.09224050       2.24299535       0.00000000
Si      -3.46603049      -0.55829318      -1.43872681       0.00000000
Si      -2.41954246       2.93352438      -0.12017766       0.00000000
Si       3.59596863       1.49466126      -0.23811962       0.00000000
Si       2.85998643      -1.98044276      -1.78821886       0.00000000
