10
Lattice="16.28999089631971 0.0 0.0 0.0 16.28999089631971 0.0 0.0 0.0 34.395419527814205" Properties=species:S:1:pos:R:3:initial_magmoms:R:1 pbc="T T T"
Si       1.34715042       1.36353816      -1.37671183       0.00000000
Si      -1.36669842      -1.35166275      -1.37729655       0.00000000
Si      -1.22737005       1.33191927       1.60203635       0.00000000
Si       1.48040262      -1.27931886       1.48275297       0.00000000
Si      -2.21959395      -0.47998485       2.76566844       0.00000000
Si       0.75668679       1.99358649       3.04045360       0.00000000
Si       2.53662993       0.40495311       2.78895415       0.00000000
Si       2.72271060      -2.69576694       0.00536569       0.00000000
Si      -2.71516833      -2.71042794      -0.01000907       0.00000000
Si       2.71454931       2.71402803      -0.03240050       0.00000000
