10
Lattice="16.28999089631971 0.0 0.0 0.0 16.28999089631971 0.0 0.0 0.0 34.395419527814205" Properties=species:S:1:pos:R:3:initial_magmoms:R:1 pbc="T T T"
Si       1.43395983       1.72419876       0.73062791       0.00000000
Si      -2.32718940       0.46621980       0.38973472       0.00000000
Si       0.12885390       0.19249893      -2.44321120       0.00000000
Si       0.78211548      -2.04476967       1.27466056       0.00000000
Si       1.90879704      -1.39613445      -2.69471065       0.00000000
Si      -1.13704200      -3.48845463       0.79047597       0.00000000
Si       1.10952819       1.84852404       3.07381717       0.00000000
Si      -3.42813276      -0.36357651      -1.53947105       0.00000000
Si       0.99417870       3.61022238      -0.78566061       0.00000000
Si      -2.44708380       2.76467364       1.01944641       0.00000000
