10
Lattice="16.28999089631971 0.0 0.0 0.0 16.28999089631971 0.0 0.0 0.0 34.395419527814205" Properties=species:S:1:pos:R:3:initial_magmoms:R:1 pbc="T T T"
Si       1.18387575       1.79647749       0.92399907       0.00000000
Si       0.32443164      -0.12432528      -2.34318926       0.00000000
Si      -2.38475826       0.57671487       0.03921080       0.00000000
Si       1.05011856      -1.79725941       1.31452488       0.00000000
Si      -0.36000900       3.52047492       0.64859479       0.00000000
Si      -0.31758984      -3.54761991       0.55218437       0.00000000
Si       2.63682972      -0.49137156      -2.47860411       0.00000000
Si      -2.35574577       2.53563624       1.30083549       0.00000000
Si      -1.10952819      -1.84852404      -3.07381717       0.00000000
Si      -3.43898190      -0.94726350       1.46806612       0.00000000
