10
Lattice="16.28999089631971 0.0 0.0 0.0 16.28999089631971 0.0 0.0 0.0 34.395419527814205" Properties=species:S:1:pos:R:3:initial_magmoms:R:1 pbc="T T T"
Si       2.31239808      -0.36704628      -0.13541484       0.00000000
Si      -1.43395983      -1.72419876      -0.73062791       0.00000000
Si      -0.32443164       0.12432528       2.34318926       0.00000000
Si      -0.43978113       1.88602362      -1.51628852       0.00000000
Si      -2.70918990       0.70104015       2.38240007       0.00000000
Si      -1.30510593      -1.53169983      -3.17383911       0.00000000
Si       1.08455562       1.35718506      -3.40958545       0.00000000
Si      -0.65184435      -3.76896843       0.54403265       0.00000000
Si       0.85944411       1.92080277       3.26718833       0.00000000
Si       3.60057870       1.60015041       0.31557815       0.00000000
