10
Lattice="16.28999089631971 0.0 0.0 0.0 16.28999089631971 0.0 0.0 0.0 34.395419527814205" Properties=species:S:1:pos:R:3:initial_magmoms:R:1 pbc="T T T"
Si       2.29025997      -0.40865094      -0.27475076       0.00000000
Si      -0.23656338       2.31092125       0.32507129       0.00000000
Si      -0.98093493      -0.86752395      -1.98895064       0.00000000
Si      -0.91383642      -1.34288244       2.18077400       0.00000000
Si       2.67304239      -1.70067600       1.66762845       0.00000000
Si      -2.57841378       2.59855541       0.07594513       0.00000000
Si      -3.31439598      -0.87654861      -1.47415411       0.00000000
Si      -0.22072950      -3.20150628      -2.01935621       0.00000000
Si       0.61173837       3.43654559      -1.53668502       0.00000000
Si      -3.84359292       0.64062054       0.26587674       0.00000000
