10
Lattice="16.28999089631971 0.0 0.0 0.0 16.28999089631971 0.0 0.0 0.0 34.395419527814205" Properties=species:S:1:pos:R:3:initial_magmoms:R:1 pbc="T T T"
Si      -2.29025997       0.40865094       0.27475076       0.00000000
Si       1.41882642       1.77467725       0.61894592       0.00000000
Si       0.38278242      -1.29202506       1.94237922       0.00000000
Si       0.79757469      -1.00939356      -2.05258220       0.00000000
Si       2.73294072      -1.65754008       1.75647187       0.00000000
Si       2.74577724       0.22428072      -2.39368177       0.00000000
Si       3.38794533       0.59603481       1.22430564       0.00000000
Si      -0.74614716      -3.28895100       1.41513154       0.00000000
Si      -3.27119490      -0.45887301      -1.71419988       0.00000000
Si      -2.52682335       2.71957219       0.59982206       0.00000000
