10
Lattice="16.28999089631971 0.0 0.0 0.0 16.28999089631971 0.0 0.0 0.0 34.395419527814205" Properties=species:S:1:pos:R:3:initial_magmoms:R:1 pbc="T T T"
Si      -1.67265720      -1.08424611      -1.18668598       0.00000000
Si       1.35575154      -1.33437906       1.38120044       0.00000000
Si      -1.37528325       1.39281129       1.36159160       0.00000000
Si       1.49718134       0.85861332      -1.68278450       0.00000000
Si       0.67807125      -1.17810909      -3.34312112       0.00000000
Si       2.60467719       2.55373443       0.00826522       0.00000000
Si      -0.00643455      -2.69279564       2.74911735       0.00000000
Si       2.83039632      -2.61449776      -0.02341641       0.00000000
Si       2.70903582       0.02730204       2.74956449       0.00000000
Si      -2.72293866       0.02661786       2.74292617       0.00000000
