10
Lattice="16.28999089631971 0.0 0.0 0.0 16.28999089631971 0.0 0.0 0.0 34.395419527814205" Properties=species:S:1:pos:R:3:initial_magmoms:R:1 pbc="T T T"
Si      -1.40274819       1.26219312      -1.36849476       0.00000000
Si       1.34125344       1.36257698       1.35830683       0.00000000
Si      -1.37681451      -1.34985204       1.35906353       0.00000000
Si       1.26126954      -1.47060981      -1.38993688       0.00000000
Si      -2.12809302      -0.40465737      -3.01333421       0.00000000
Si      -0.43377012      -2.54193795      -2.72957184       0.00000000
Si       2.68904489      -2.71804914       0.00182296       0.00000000
Si       2.69612412       0.00902802       2.71788974       0.00000000
Si      -0.01943397      -2.70591309       2.71647952       0.00000000
Si       2.70343953       2.72099357      -0.00961009       0.00000000
