10
Lattice="16.28999089631971 0.0 0.0 0.0 16.28999089631971 0.0 0.0 0.0 34.395419527814205" Properties=species:S:1:pos:R:3:initial_magmoms:R:1 pbc="T T T"
Si       1.10099223       0.27160480      -2.03177296       0.00000000
Si       1.46157138       0.79900984       1.68169619       0.00000000
Si      -0.22889079      -2.38873858      -0.20733570       0.00000000
Si      -1.85020191       1.45002340      -0.54262244       0.00000000
Si      -0.06695190       0.91580914       3.41907859       0.00000000
Si       1.02724740       2.65514131      -2.22971871       0.00000000
Si       3.20446196      -0.76266196      -1.50242716       0.00000000
Si      -3.34267542      -0.02577567      -1.66573670       0.00000000
Si      -2.34949041      -2.91585040       0.58303708       0.00000000
Si      -1.98562068      -0.44805645       3.26412714       0.00000000
