10
Lattice="16.28999089631971 0.0 0.0 0.0 16.28999089631971 0.0 0.0 0.0 34.395419527814205" Properties=species:S:1:pos:R:3:initial_magmoms:R:1 pbc="T T T"
Si       1.35535367       1.36215351      -1.37691820       0.00000000
Si      -1.36213722      -1.35573525      -1.38108005       0.00000000
Si      -1.34397387       1.43355258       1.38685849       0.00000000
Si       1.35889551      -1.40494734       1.41805515       0.00000000
Si      -2.69868285      -2.69998605       0.00312998       0.00000000
Si      -2.70684414       2.70980892      -0.03463621       0.00000000
Si       2.68908708       2.74546773      -0.01062819       0.00000000
Si       2.71662044      -2.72134224      -0.00271724       0.00000000
Si      -0.00117288      -2.71073745      -2.73932153       0.00000000
Si       2.71370290       0.00304623      -2.73897758       0.00000000
