10
Lattice="16.28999089631971 0.0 0.0 0.0 16.28999089631971 0.0 0.0 0.0 34.395419527814205" Properties=species:S:1:pos:R:3:initial_magmoms:R:1 pbc="T T T"
Si      -1.36770840      -1.75036050      -0.76234050       0.00000000
Si      -0.67152267       0.31964238       2.29410697       0.00000000
Si      -1.05011856       1.79725941      -1.31452488       0.00000000
Si       2.40513705      -0.50912766      -0.20417132       0.00000000
Si      -3.25878192      -1.12782186       0.44562730       0.00000000
Si       2.39140458      -0.56281950      -2.56645006       0.00000000
Si       0.13375719       3.59373690      -0.39052581       0.00000000
Si      -0.52545024      -3.78843498       0.02899535       0.00000000
Si      -2.49056181      -1.21243212       2.66131268       0.00000000
Si       1.16616852       0.06659352       3.71264366       0.00000000
