10
Lattice="16.28999089631971 0.0 0.0 0.0 16.28999089631971 0.0 0.0 0.0 34.395419527814205" Properties=species:S:1:pos:R:3:initial_magmoms:R:1 pbc="T T T"
Si       2.36447951      -0.29305710      -0.09290208       0.00000000
Si      -0.00373041       2.35688607      -0.41401790       0.00000000
Si      -0.55021104      -1.49182191      -1.86533343       0.00000000
Si      -1.05629247      -0.14165784       2.34772946       0.00000000
Si      -1.84526604       2.07047529      -1.94083142       0.00000000
Si      -0.15161103       1.97526024       3.19316935       0.00000000
Si       3.25167038       1.54745226      -1.26791906       0.00000000
Si      -0.78172452       3.52642662       1.45018049       0.00000000
Si       1.16352954      -3.18052476      -1.93016884       0.00000000
Si       3.31649643       0.09272268       2.27367608       0.00000000
