10
Lattice="16.28999089631971 0.0 0.0 0.0 16.28999089631971 0.0 0.0 0.0 34.395419527814205" Properties=species:S:1:pos:R:3:initial_magmoms:R:1 pbc="T T T"
Si      -2.20797918      -0.85033800       0.07429415       0.00000000
Si       0.15250698       0.69599025      -2.27656530       0.00000000
Si       1.71374058      -1.68870285      -0.06483540       0.00000000
Si       0.55021104       1.49182191       1.86533343       0.00000000
Si       2.91469055       1.19876481       1.77243135       0.00000000
Si      -0.45426294       2.91613806      -2.19532327       0.00000000
Si       3.70802821      -0.46229391       0.25507657       0.00000000
Si      -1.29505500       3.56229720      -0.07549799       0.00000000
Si       2.04625206      -2.16331200      -2.41232410       0.00000000
Si       2.27452383       0.10624338      -3.09552070       0.00000000
