10
Lattice="16.28999089631971 0.0 0.0 0.0 16.28999089631971 0.0 0.0 0.0 34.395419527814205" Properties=species:S:1:pos:R:3:initial_magmoms:R:1 pbc="T T T"
Si      -0.63011349       1.55116638      -1.74298886       0.00000000
Si      -0.90468144      -2.11691808      -0.84543988       0.00000000
Si       1.98298846      -0.96959709       1.07857217       0.00000000
Si      -1.15903350       1.77355746       1.30207373       0.00000000
Si      -2.20455828       0.14195106       2.64113429       0.00000000
Si       0.65713860      -2.46738114       2.46579322       0.00000000
Si       0.14788062       0.38162583      -3.60718724       0.00000000
Si      -3.23306001      -1.70336385      -0.69912169       0.00000000
Si       0.15161103      -1.97526024      -3.19316935       0.00000000
Si      -2.98027179       1.91668140      -1.55708151       0.00000000
