10
Lattice="16.28999089631971 0.0 0.0 0.0 16.28999089631971 0.0 0.0 0.0 34.395419527814205" Properties=species:S:1:pos:R:3:initial_magmoms:R:1 pbc="T T T"
Si       1.35601218      -1.35692442       1.35748478       0.00000000
Si       1.35684297       1.35685435      -1.35731280       0.00000000
Si      -1.35804843      -1.35806472      -1.35690006       0.00000000
Si      -1.35928647       1.35516510       1.36381354       0.00000000
Si       2.71251306      -2.71520091      -0.00048154       0.00000000
Si       0.00835677      -2.72295495       2.70485730       0.00000000
Si       2.71389771      -0.00034209      -2.71438484       0.00000000
Si      -0.00120546      -2.71474479      -2.71441924       0.00000000
Si      -2.71485882      -2.71440270       0.00020637       0.00000000
Si      -0.00128691       2.71467216      -2.71476319       0.00000000
