10
Lattice="16.28999089631971 0.0 0.0 0.0 16.28999089631971 0.0 0.0 0.0 34.395419527814205" Properties=species:S:1:pos:R:3:initial_magmoms:R:1 pbc="T T T"
Si      -1.34765541      -1.36603053       1.34737252       0.00000000
Si      -1.35601218       1.35692442      -1.35748478       0.00000000
Si       1.35650088      -1.35827649      -1.35796632       0.00000000
Si       1.35677781       1.35154872       1.37275636       0.00000000
Si       0.01521486      -2.64228687       2.76886721       0.00000000
Si      -2.71529865       2.71208952       0.00632876       0.00000000
Si       2.71402670       2.71402462       0.00319878       0.00000000
Si       2.71454240      -2.71368594       0.00509052       0.00000000
Si      -2.71406061      -0.00114030      -2.71438484       0.00000000
Si       0.00083079       2.71377877      -2.71479759       0.00000000
