10
Lattice="16.28999089631971 0.0 0.0 0.0 16.28999089631971 0.0 0.0 0.0 34.395419527814205" Properties=species:S:1:pos:R:3:initial_magmoms:R:1 pbc="T T T"
Si      -1.95540992       0.98160282       0.82466504       0.00000000
Si       0.43013745      -1.97154612       1.25140925       0.00000000
Si       1.58203593       1.81925091       0.14707490       0.00000000
Si      -0.21594676      -1.12471047      -2.13052227       0.00000000
Si      -1.72713815       3.25115820       0.14146844       0.00000000
Si       1.94641065      -2.13649866      -2.29173369       0.00000000
Si       1.60914249      -3.33286884      -0.28424391       0.00000000
Si       0.29634768       3.46745682       1.30589162       0.00000000
Si      -3.55350779       0.77978601      -0.81823309       0.00000000
Si      -1.63206581      -3.23708364       1.51243623       0.00000000
