10
Lattice="16.28999089631971 0.0 0.0 0.0 16.28999089631971 0.0 0.0 0.0 34.395419527814205" Properties=species:S:1:pos:R:3:initial_magmoms:R:1 pbc="T T T"
Si       0.58696128      -2.22430176       0.04825680       0.00000000
Si      -1.11663063       0.54301086       1.96886370       0.00000000
Si      -1.98568584       0.23452713      -1.20284289       0.00000000
Si       1.95230178       1.33175637       0.18865898       0.00000000
Si      -2.02075821       2.55401692      -0.81389927       0.00000000
Si       1.35567009      -2.52345132      -2.17692171       0.00000000
Si       3.38339132      -0.15973974       1.35397645       0.00000000
Si      -1.35221661      -3.44092041       0.60818015       0.00000000
Si      -2.49619815       2.40504324       1.46201252       0.00000000
Si       0.49691016       1.27298205       3.51263418       0.00000000
