10
Lattice="16.28999089631971 0.0 0.0 0.0 16.28999089631971 0.0 0.0 0.0 34.395419527814205" Properties=species:S:1:pos:R:3:initial_magmoms:R:1 pbc="T T T"
Si       1.11663063      -0.54301086      -1.96886370       0.00000000
Si      -1.94820255      -1.23367428       0.34109957       0.00000000
Si       1.61354079       0.72997119       1.54377048       0.00000000
Si      -1.37956752       1.86203238      -0.50685119       0.00000000
Si      -0.86905521      -0.30848373      -3.17170659       0.00000000
Si      -0.81456516       3.18284513       1.34097497       0.00000000
Si      -0.90412758       2.01100606      -2.78276297       0.00000000
Si      -1.07637804      -3.33777213       0.75914173       0.00000000
Si      -2.56865607      -1.49703471      -2.02867737       0.00000000
Si       1.52529786       3.04366337       1.20373717       0.00000000
