10
Lattice="16.28999089631971 0.0 0.0 0.0 16.28999089631971 0.0 0.0 0.0 34.395419527814205" Properties=species:S:1:pos:R:3:initial_magmoms:R:1 pbc="T T T"
Si      -0.97137270      -0.35821710       2.07421693       0.00000000
Si       2.17533469      -0.85996539       0.01179764       0.00000000
Si      -0.08824293       2.31369218      -0.34003331       0.00000000
Si      -1.61354079      -0.72997119      -1.54377048       0.00000000
Si      -2.94049161       0.82042534       1.46885721       0.00000000
Si       1.51151393      -2.84680782       1.10361205       0.00000000
Si      -2.42810595       2.45287394      -0.20279551       0.00000000
Si       0.97473234       2.27795192      -2.43368366       0.00000000
Si       1.45539162       0.05877432      -3.32397520       0.00000000
Si      -0.49691016      -1.27298205      -3.51263418       0.00000000
