10
Lattice="16.28999089631971 0.0 0.0 0.0 16.28999089631971 0.0 0.0 0.0 34.395419527814205" Properties=species:S:1:pos:R:3:initial_magmoms:R:1 pbc="T T T"
Si       1.39935987      -1.21257873       1.48496804       0.00000000
Si       1.38776139       1.14473088      -1.62500704       0.00000000
Si      -1.31132871       1.49872887       1.46837224       0.00000000
Si      -0.97969689      -1.96576317      -1.19780351       0.00000000
Si       2.66245389      -2.63350656       0.04780278       0.00000000
Si       0.04134402      -2.57184891       2.85618348       0.00000000
Si       2.74317084       2.72171691      -0.11887408       0.00000000
Si      -0.08050518       1.28687742      -3.66166415       0.00000000
Si      -2.67394486       0.14283072       2.85504843       0.00000000
Si      -2.77599845      -2.75942826       0.11777342       0.00000000
