10
Lattice="16.28999089631971 0.0 0.0 0.0 16.28999089631971 0.0 0.0 0.0 34.395419527814205" Properties=species:S:1:pos:R:3:initial_magmoms:R:1 pbc="T T T"
Si      -1.35536314      -1.35583299       1.35775994       0.00000000
Si      -1.35329431       1.36050822      -1.35851664       0.00000000
Si       1.35946540       1.35925389       1.35755357       0.00000000
Si       1.36062036      -1.35615879      -1.36109630       0.00000000
Si      -0.00475352       2.70441693      -2.71400305       0.00000000
Si      -2.71236901      -2.71353933       0.00065351       0.00000000
Si      -2.71302061       0.00175932       2.71507275       0.00000000
Si       0.00234901      -2.71358820       2.71503835       0.00000000
Si      -2.71323238       2.71655298       0.00065351       0.00000000
Si       2.71751872      -2.71407690       0.00003440       0.00000000
