10
Lattice="16.28999089631971 0.0 0.0 0.0 16.28999089631971 0.0 0.0 0.0 34.395419527814205" Properties=species:S:1:pos:R:3:initial_magmoms:R:1 pbc="T T T"
Si       1.35746199      -1.35751086      -1.35720962       0.00000000
Si       1.35692442       1.35762489       1.35765676       0.00000000
Si      -1.35761512      -1.35702216       1.35775994       0.00000000
Si      -1.35819993       1.35788553      -1.35741599       0.00000000
Si      -0.00144981       2.71484253      -2.71448803       0.00000000
Si       2.71480995      -2.71482624       0.00044714       0.00000000
Si       2.71453302       2.71547784       0.00020637       0.00000000
Si       2.71511946      -0.00096111      -2.71510714       0.00000000
Si      -2.71531632      -2.71495656       0.00006879       0.00000000
Si      -0.00014661      -2.71544526      -2.71493517       0.00000000
