10
Lattice="16.28999089631971 0.0 0.0 0.0 16.28999089631971 0.0 0.0 0.0 34.395419527814205" Properties=species:S:1:pos:R:3:initial_magmoms:R:1 pbc="T T T"
Si      -0.89550365       1.74395853       1.21532843       0.00000000
Si      -0.30793150       0.87276933      -2.15862334       0.00000000
Si       2.31024780      -0.42573915      -0.15804704       0.00000000
Si      -0.88719087      -1.84050936       1.17501698       0.00000000
Si      -3.25540079       0.80943381       0.85390116       0.00000000
Si      -0.09385321      -3.50156808      -0.34233780       0.00000000
Si       1.07787672      -0.60334902      -3.32614211       0.00000000
Si      -0.23168290       3.73080096       0.12351402       0.00000000
Si       0.49612824      -2.71673217      -2.52851189       0.00000000
Si       0.47946357       3.15804456      -2.04694135       0.00000000
