10
Lattice="16.28999089631971 0.0 0.0 0.0 16.28999089631971 0.0 0.0 0.0 34.395419527814205" Properties=species:S:1:pos:R:3:initial_magmoms:R:1 pbc="T T T"
Si       0.10567323       2.43142911      -0.21424919       0.00000000
Si       1.46826657      -0.14214654       2.03665711       0.00000000
Si      -2.45448760      -0.56345481       0.21084404       0.00000000
Si       0.32943267      -1.40669037      -2.14682571       0.00000000
Si       0.97195914       2.08977894      -2.36131566       0.00000000
Si      -0.20906586       0.46553562      -3.48879814       0.00000000
Si       2.65196313      -1.34672688      -2.02802386       0.00000000
Si      -2.17442178       2.88948762      -0.02067166       0.00000000
Si       3.61294281      -1.34599383       0.28579170       0.00000000
Si       0.08050518      -1.28687742       3.66166415       0.00000000
