10
Lattice="16.28999089631971 0.0 0.0 0.0 16.28999089631971 0.0 0.0 0.0 34.395419527814205" Properties=species:S:1:pos:R:3:initial_magmoms:R:1 pbc="T T T"
Si       1.34874684       1.35685504       1.36163631       0.00000000
Si      -1.36638077      -1.35268902       1.35974456       0.00000000
Si      -1.24087283       1.43277622      -1.41038153       0.00000000
Si       1.30398192      -1.33626870      -1.47162948       0.00000000
Si      -0.67106655      -2.13172569      -2.69408097       0.00000000
Si      -2.38498143      -0.37769994      -2.54691930       0.00000000
Si       0.51781023       2.30937533      -2.91834089       0.00000000
Si       2.30154894       0.33917313      -2.97963356       0.00000000
Si       2.70650205       0.00277354       2.71994658       0.00000000
Si      -2.71551761       2.71289492      -0.00576468       0.00000000
