10
Lattice="16.28999089631971 0.0 0.0 0.0 16.28999089631971 0.0 0.0 0.0 34.395419527814205" Properties=species:S:1:pos:R:3:initial_magmoms:R:1 pbc="T T T"
Si      -0.40368738      -2.25228798      -0.71480601       0.00000000
Si      -0.88629589       0.64356903       2.18951044       0.00000000
Si      -2.09541595       1.13497317      -0.62723522       0.00000000
Si       2.50197133       0.11868894      -0.06315003       0.00000000
Si       0.79012039       2.22485562       2.21169550       0.00000000
Si      -3.38359657      -0.83222352      -1.07822821       0.00000000
Si       0.71740183       3.60881397       0.23891072       0.00000000
Si      -2.71595092       1.98273735       1.53400217       0.00000000
Si       2.84049382       1.18120419       2.07174046       0.00000000
Si      -2.57890315      -2.70093087       0.14845071       0.00000000
