10
Lattice="16.290000149 0.0 0.0 0.0 16.290000149 0.0 0.0 0.0 29.1751946751" Properties=species:S:1:pos:R:3:initial_magmoms:R:1 pbc="T T T"
Si      -1.35532801      -1.31452156       1.39957202       0.00000000
Si       1.34348518       1.36943515       1.36310302       0.00000000
Si      -1.37373571       1.35130438      -1.36111327       0.00000000
Si       1.42697143      -1.37546245      -1.29356395       0.00000000
Si      -2.67563252      -2.65541663       0.00533031       0.00000000
Si      -2.54705555      -0.11660382      -2.81113796       0.00000000
Si       2.68483637      -0.00630423      -2.71909022       0.00000000
Si       2.71078634       2.71966439       0.01299171       0.00000000
Si      -0.00304623      -2.68167611       2.75610187       0.00000000
Si       2.80189632      -2.63985968       0.12374075       0.00000000
