10
Lattice="16.290000149 0.0 0.0 0.0 16.290000149 0.0 0.0 0.0 29.1751946751" Properties=species:S:1:pos:R:3:initial_magmoms:R:1 pbc="T T T"
Si      -1.36764325      -1.35814618      -1.32887177       0.00000000
Si      -1.43964505       1.33408585       1.27974074       0.00000000
Si       1.35394336       1.35189082      -1.36070190       0.00000000
Si       1.36374994      -1.32613633       1.37989918       0.00000000
Si      -0.09040950       2.67750587       2.59209935       0.00000000
Si      -0.09508473      -2.62329275       2.68117122       0.00000000
Si       0.00312768      -2.71446788      -2.66203229       0.00000000
Si      -2.71060715       0.02493999      -2.67256453       0.00000000
Si       2.73152351      -0.01420488      -2.67370237       0.00000000
Si       2.73087191       2.69164559      -0.02692870       0.00000000
