10
Lattice="16.290000149 0.0 0.0 0.0 16.290000149 0.0 0.0 0.0 29.1751946751" Properties=species:S:1:pos:R:3:initial_magmoms:R:1 pbc="T T T"
Si      -1.39869199       1.42429987      -1.22468715       0.00000000
Si      -1.32638068      -1.38243457       1.37607431       0.00000000
Si       1.19948158      -1.47224134      -1.42949701       0.00000000
Si       1.30797298       1.44594928       1.37114662       0.00000000
H        3.22256928       1.73014463      -0.50773591       0.00000000
Si      -0.00504990       2.65505825      -2.65325055       0.00000000
Si       2.67112019      -2.68177385       0.02532407       0.00000000
Si       2.52983702      -0.13937724      -2.82789327       0.00000000
Si      -2.90331786       0.13913289      -2.50941684       0.00000000
Si       2.73601956       0.07943004       2.70500735       0.00000000
