10
Lattice="16.290000149 0.0 0.0 0.0 16.290000149 0.0 0.0 0.0 29.1751946751" Properties=species:S:1:pos:R:3:initial_magmoms:R:1 pbc="T T T"
Si       1.72081046      -0.75737098      -1.37981166       0.00000000
Si       1.35829279       1.34579836       1.34144628       0.00000000
Si      -1.43797044       1.18615636      -1.44423049       0.00000000
Si      -1.19158256      -1.69292198       1.18932681       0.00000000
Si      -1.66341916      -0.66787372      -2.87778285       0.00000000
Si       0.64495369      -0.84447361      -3.47899609       0.00000000
Si       2.56510487      -2.60252300      -0.25507873       0.00000000
Si      -2.65201870      -0.41329359       2.53509102       0.00000000
Si      -0.08679312       2.53970876       2.69871047       0.00000000
Si       2.63748134      -0.14918382       2.67936702       0.00000000
