10
Lattice="16.290000149 0.0 0.0 0.0 16.290000149 0.0 0.0 0.0 29.1751946751" Properties=species:S:1:pos:R:3:initial_magmoms:R:1 pbc="T T T"
Si       1.31212693       1.35997066       1.34500565       0.00000000
Si      -1.37492488       1.26439723      -1.41730470       0.00000000
Si       1.28726839      -1.44904438      -1.32782730       0.00000000
Si      -1.42721578      -1.39046554       1.28146208       0.00000000
Si      -2.18487998      -0.59486194      -2.59812373       0.00000000
Si      -0.55214956      -2.33031710      -2.51334091       0.00000000
Si       2.62115876       2.64960110      -0.12513241       0.00000000
Si       2.62905941      -0.03135825       2.68642275       0.00000000
Si      -0.10739997       2.68996772       2.64689036       0.00000000
Si       2.53658108      -2.81934291       0.08549791       0.00000000
