10
Lattice="16.290000149 0.0 0.0 0.0 16.290000149 0.0 0.0 0.0 29.1751946751" Properties=species:S:1:pos:R:3:initial_magmoms:R:1 pbc="T T T"
Si      -2.30733191      -0.08867462       0.36031365       0.00000000
H       -0.90334567       1.57237597      -1.49231121       0.00000000
Si       0.96860341      -0.39837847      -2.15508410       0.00000000
Si       1.02232783       2.15225111       0.38840937       0.00000000
Si       0.06155991      -2.06685893       1.28863917       0.00000000
H       -2.92208394       1.21502224      -0.08271168       0.00000000
Si       2.84190456       1.26692218       1.53648245       0.00000000
Si       2.88249924      -1.46118206      -1.37450177       0.00000000
Si       3.53499519      -0.78110877       0.76914566       0.00000000
Si      -3.15568254      -1.74972521      -1.03574859       0.00000000
