10
Lattice="16.290000149 0.0 0.0 0.0 16.290000149 0.0 0.0 0.0 29.1751946751" Properties=species:S:1:pos:R:3:initial_magmoms:R:1 pbc="T T T"
Si       1.73933219       0.32663731      -1.49642491       0.00000000
Si      -1.91389583       1.06280359      -0.78058233       0.00000000
Si       0.65249596       0.68007330       2.14364743       0.00000000
Si      -0.04629618      -2.14581493       0.97561851       0.00000000
Si       1.88374304      -1.97470477      -1.72973894       0.00000000
Si      -0.58709161      -1.10990124       2.98821096       0.00000000
H        1.30212487       2.98494868       0.01134915       0.00000000
Si      -0.74973097       2.49903426      -2.28701434       0.00000000
Si      -2.88249924       1.46118206       1.37450177       0.00000000
Si       2.14384547      -2.86501844       0.50767756       0.00000000
