10
Lattice="16.290000149 0.0 0.0 0.0 16.290000149 0.0 0.0 0.0 29.1751946751" Properties=species:S:1:pos:R:3:initial_magmoms:R:1 pbc="T T T"
Si       1.34563383       1.32877531      -1.38170221       0.00000000
Si      -1.33141592      -1.36031275      -1.37806406       0.00000000
Si      -1.35469433       1.38829897       1.32989290       0.00000000
Si       1.36944981      -1.34913781       1.36332767       0.00000000
Si      -2.62668270      -2.67496463       0.09082238       0.00000000
Si       2.70790139       2.69645114      -0.01843872       0.00000000
Si      -2.69549166       0.03471399       2.71472269       0.00000000
Si      -0.03988607       2.66869298      -2.75344401       0.00000000
Si       0.00979518       2.71792136       2.70894600       0.00000000
Si       2.73012095       0.00478926       2.71664825       0.00000000
