10
Lattice="16.290000149 0.0 0.0 0.0 16.290000149 0.0 0.0 0.0 29.1751946751" Properties=species:S:1:pos:R:3:initial_magmoms:R:1 pbc="T T T"
Si      -1.44099712      -1.41341815       1.21088728       0.00000000
Si       1.33786513      -1.33138171      -1.40720716       0.00000000
Si      -1.32079810       1.34754139      -1.41814786       0.00000000
Si       1.41206608       1.39476610       1.29934647       0.00000000
Si      -0.11678301       2.65476503       2.51653559       0.00000000
Si      -0.03197727      -2.62104473       2.59682573       0.00000000
Si      -2.76449448      -0.14792949       2.67180598       0.00000000
Si       2.75841831       2.68296302      -0.07334644       0.00000000
Si      -2.67165614       2.76700183      -0.13966166       0.00000000
Si       2.76079665      -2.70212006      -0.15669997       0.00000000
