10
Lattice="16.290000149 0.0 0.0 0.0 16.290000149 0.0 0.0 0.0 29.1751946751" Properties=species:S:1:pos:R:3:initial_magmoms:R:1 pbc="T T T"
Si      -1.30274389      -1.35376417       1.43446847       0.00000000
Si       1.36050172      -1.45819936      -1.28705788       0.00000000
Si       1.39041830       1.28705662       1.43441012       0.00000000
Si      -1.30093570       1.52985907      -1.31765682       0.00000000
Si       2.70604595       0.00366525      -2.52072019       0.00000000
Si      -2.53232939       2.73112311       0.27831093       0.00000000
Si      -2.64948707      -2.68685633       0.04581673       0.00000000
Si       2.80285743       2.67750587       0.17844716       0.00000000
Si      -2.64648971      -0.05046642       2.85818879       0.00000000
Si       0.10953233       2.63220338       2.89118594       0.00000000
