10
Lattice="16.290000149 0.0 0.0 0.0 16.290000149 0.0 0.0 0.0 29.1751946751" Properties=species:S:1:pos:R:3:initial_magmoms:R:1 pbc="T T T"
Si       1.37692855       1.33975477       1.33377320       0.00000000
Si       1.37758015      -1.36609570      -1.31300046       0.00000000
Si      -1.35394336      -1.35189082       1.36070190       0.00000000
Si      -1.35089713       1.37595115      -1.34278833       0.00000000
Si      -0.05693355       2.66198150       2.61654816       0.00000000
Si      -0.00071676      -2.70163136      -2.65748096       0.00000000
Si      -2.71601543       0.02062314      -2.68989460       0.00000000
Si       2.73253350      -0.01210347      -2.67338144       0.00000000
Si       2.72248256       2.69496875      -0.02614097       0.00000000
Si       0.00980658      -2.67802715       2.74060109       0.00000000
