10
Lattice="16.290000149 0.0 0.0 0.0 16.290000149 0.0 0.0 0.0 29.1751946751" Properties=species:S:1:pos:R:3:initial_magmoms:R:1 pbc="T T T"
Si       1.24931269      -1.37029852       1.41332520       0.00000000
Si      -1.28726839       1.44904438       1.32782730       0.00000000
Si       1.90772192       0.79061887      -1.12138362       0.00000000
Si      -1.83941795      -0.88127272      -1.18551361       0.00000000
H        0.69462190      -1.82726561      -1.92290207       0.00000000
Si       1.25361325       1.21528288      -3.25241569       0.00000000
Si       2.66927942       0.05869287       2.64858836       0.00000000
Si      -2.71448417       0.05857884       2.60928937       0.00000000
Si       2.74769949      -2.60567838       0.13389080       0.00000000
Si      -3.47214837       0.85418245      -1.27029644       0.00000000
