10
Lattice="16.290000149 0.0 0.0 0.0 16.290000149 0.0 0.0 0.0 29.1751946751" Properties=species:S:1:pos:R:3:initial_magmoms:R:1 pbc="T T T"
Si       1.71867647      -1.63005886      -0.10284256       0.00000000
Si      -2.05710122      -1.00924696      -0.72488689       0.00000000
Si       1.39478239       1.73899010      -0.91417555       0.00000000
Si      -1.00626589       1.24019029       1.84369725       0.00000000
H        0.80078383      -1.46667016      -2.64484810       0.00000000
H       -0.60390289       0.56268919      -3.10158577       0.00000000
Si      -2.36190504       2.64859112       0.53022999       0.00000000
Si       2.15780600      -1.87792751       2.18045223       0.00000000
Si      -3.47005022       0.94092670      -0.71800154       0.00000000
Si       3.58759560      -0.73212148      -1.37914063       0.00000000
