10
Lattice="16.290000149 0.0 0.0 0.0 16.290000149 0.0 0.0 0.0 29.1751946751" Properties=species:S:1:pos:R:3:initial_magmoms:R:1 pbc="T T T"
Si       1.41243912       1.39044925      -1.25596296       0.00000000
Si       1.36519812      -1.34838847       1.37132168       0.00000000
Si      -1.28088597       1.34514676       1.45677582       0.00000000
Si      -1.39041830      -1.28705662      -1.43441012       0.00000000
Si      -2.69316219      -2.64082079       0.00005835       0.00000000
Si      -2.59758876       2.78007260       0.18068198       0.00000000
Si       0.13365294       2.76376957      -2.64317636       0.00000000
Si       2.74206152       0.07600914      -2.67559292       0.00000000
Si       2.71787087      -2.71749782       0.01353729       0.00000000
Si       2.71358660       2.71767376       0.16959541       0.00000000
