10
Lattice="16.290000149 0.0 0.0 0.0 16.290000149 0.0 0.0 0.0 29.1751946751" Properties=species:S:1:pos:R:3:initial_magmoms:R:1 pbc="T T T"
Si      -1.34543347      -1.34763913       1.36960034       0.00000000
Si       1.35267274      -1.36910935      -1.35778439       0.00000000
Si      -1.36519812       1.34838847      -1.37132168       0.00000000
Si       1.32967126       1.34641738       1.41374241       0.00000000
Si      -2.64608409       2.69353523       0.08545415       0.00000000
Si       0.04724100       2.73883772      -2.62728463       0.00000000
Si       2.70589934       0.02873556      -2.67791818       0.00000000
Si      -2.70992297      -2.67726152      -0.00945276       0.00000000
Si       2.71899650       2.70545951       0.11144924       0.00000000
Si       0.00638568      -2.70718625       2.72823080       0.00000000
