10
Lattice="16.290000149 0.0 0.0 0.0 16.290000149 0.0 0.0 0.0 29.1751946751" Properties=species:S:1:pos:R:3:initial_magmoms:R:1 pbc="T T T"
Si      -1.39310452       1.32989932       1.32163632       0.00000000
Si      -1.37560906      -1.33009480      -1.36233572       0.00000000
Si       1.34098610       1.39282759      -1.34404287       0.00000000
Si       1.33558453      -1.34726446       1.39717090       0.00000000
Si      -0.00105885       2.66458790       2.63924646       0.00000000
Si       2.65539709      -2.68307705      -0.00907349       0.00000000
Si      -2.69042384       2.66618432      -0.10867760       0.00000000
Si      -0.02314809      -2.67310757      -2.72324185       0.00000000
Si       2.66723177       0.04328253      -2.73815037       0.00000000
Si      -2.72883566      -2.69013062      -0.00487226       0.00000000
