10
Lattice="16.290000149 0.0 0.0 0.0 16.290000149 0.0 0.0 0.0 29.1751946751" Properties=species:S:1:pos:R:3:initial_magmoms:R:1 pbc="T T T"
Si       0.88479136      -1.42441390       1.59168192       0.00000000
Si      -2.23384772       0.50422437      -0.32507002       0.00000000
Si       0.54079542      -1.03591369      -2.01259245       0.00000000
Si       1.23958756       1.78997454      -0.84456354       0.00000000
H       -0.02831202      -1.49783293       2.80446559       0.00000000
Si       0.58709161       1.10990124      -2.98821096       0.00000000
Si       2.76623751      -0.08651619       2.00783690       0.00000000
Si       3.28412919       1.18973690       0.09338980       0.00000000
Si       1.14854275       1.44935226       3.05951514       0.00000000
Si      -1.07331553      -2.72785826      -2.08036643       0.00000000
