10
Lattice="16.290000149 0.0 0.0 0.0 16.290000149 0.0 0.0 0.0 29.1751946751" Properties=species:S:1:pos:R:3:initial_magmoms:R:1 pbc="T T T"
Si      -1.36096435      -1.36213723      -1.32852166       0.00000000
Si      -1.35246097       1.34301277       1.36090613       0.00000000
Si       1.33568227      -1.36951660       1.35935985       0.00000000
Si       1.33719724       1.36386397      -1.37514363       0.00000000
Si       0.00579924      -2.70790301      -2.67664906       0.00000000
Si      -2.70606224       2.68319108      -0.01875965       0.00000000
Si      -2.68972337       0.00793323      -2.70141880       0.00000000
Si       2.67854518      -0.00996948       2.71416836       0.00000000
Si       0.02314809       2.67310757       2.72324185       0.00000000
Si       2.69037986       2.71639010      -0.01490852       0.00000000
