10
Lattice="16.290000149 0.0 0.0 0.0 16.290000149 0.0 0.0 0.0 29.1751946751" Properties=species:S:1:pos:R:3:initial_magmoms:R:1 pbc="T T T"
Si       1.35322660       1.39784491      -1.32013380       0.00000000
Si      -1.35267274       1.36910935       1.35778439       0.00000000
Si       1.37648872      -1.34737849       1.35903892       0.00000000
Si      -1.36226755      -1.36767583      -1.36326349       0.00000000
Si       2.73513990       0.04131144      -2.64452717       0.00000000
Si      -2.70790139      -2.69645114       0.01843872       0.00000000
Si       2.69011433       2.72259659       0.08481229       0.00000000
Si      -2.69810621       0.02147022       2.72738472       0.00000000
Si       0.02221956      -2.69166188       2.73508698       0.00000000
Si      -2.71787087       2.71749782      -0.01353729       0.00000000
