10
Lattice="16.290000149 0.0 0.0 0.0 16.290000149 0.0 0.0 0.0 29.1751946751" Properties=species:S:1:pos:R:3:initial_magmoms:R:1 pbc="T T T"
Si       1.42833979      -1.22275999      -1.28896010       0.00000000
Si      -1.22131018       1.53112969      -1.24055845       0.00000000
Si       1.48362805       1.01729422       1.46768734       0.00000000
Si      -1.11679354      -1.44251209       1.55095335       0.00000000
H        2.04550274      -2.07099659      -0.20060864       0.00000000
Si      -1.99216928       0.33827814       2.83579975       0.00000000
Si      -0.12079035       1.80216272       2.99535889       0.00000000
Si       2.45716733      -0.83194660       2.37480250       0.00000000
Si      -0.00635310      -2.55691100      -2.49897212       0.00000000
Si       0.70278319      -2.32784102       2.69902643       0.00000000
