10
Lattice="16.290000149 0.0 0.0 0.0 16.290000149 0.0 0.0 0.0 29.1751946751" Properties=species:S:1:pos:R:3:initial_magmoms:R:1 pbc="T T T"
Si       1.33340167       1.34022555      -1.32865295       0.00000000
Si      -1.33017625       1.41986736       1.28589671       0.00000000
Si       1.43423677      -1.34623982       1.26165212       0.00000000
Si      -1.36075258      -1.28254460      -1.40996714       0.00000000
Si       0.05444118      -2.69021370       2.59603800       0.00000000
Si      -2.67903713       0.04635157       2.62279165       0.00000000
Si       0.05517423       2.77069934       2.61045054       0.00000000
Si       2.78080077       0.04173987       2.60111448       0.00000000
Si      -2.71062344      -2.67765411      -0.09963329       0.00000000
Si      -0.04044807      -2.77171257      -2.61789022       0.00000000
