10
Lattice="16.290000149 0.0 0.0 0.0 16.290000149 0.0 0.0 0.0 29.1751946751" Properties=species:S:1:pos:R:3:initial_magmoms:R:1 pbc="T T T"
Si       1.35506737       1.24364377      -1.48058278       0.00000000
Si       1.27200466      -1.63427797       1.14641010       0.00000000
Si      -0.97187770       1.78921217       1.25721749       0.00000000
Si      -1.28216962      -1.67097935      -1.18655517       0.00000000
H        0.24246036      -2.74481616       1.35991417       0.00000000
H       -3.05171976      -1.03166200       0.32912537       0.00000000
H       -2.47234961      -1.17217954      -1.98735591       0.00000000
H       -0.28474920      -1.19500183       3.16262028       0.00000000
H       -1.83518255       0.50569047      -3.10893792       0.00000000
Si      -2.55169820       2.76565107      -0.21058656       0.00000000
