10
Lattice="16.290000149 0.0 0.0 0.0 16.290000149 0.0 0.0 0.0 29.1751946751" Properties=species:S:1:pos:R:3:initial_magmoms:R:1 pbc="T T T"
Si      -1.88144615      -1.33789771      -0.41615498       0.00000000
Si       0.51789168       1.27625309      -1.91444710       0.00000000
H       -0.89948494      -0.98536582       2.04089239       0.00000000
Si       1.93919420      -1.48538737       0.29201452       0.00000000
Si      -1.61769475       1.53586846       1.05167824       0.00000000
H       -2.79454953      -1.41131674       0.79662869       0.00000000
Si       0.19060929       2.86078467       1.66327785       0.00000000
Si      -2.76623751       0.08651619      -2.00783690       0.00000000
Si      -0.01304829      -1.83762605       2.92615533       0.00000000
Si       1.51819543      -0.37281294      -3.23202807       0.00000000
