10
Lattice="16.290000149 0.0 0.0 0.0 16.290000149 0.0 0.0 0.0 29.1751946751" Properties=species:S:1:pos:R:3:initial_magmoms:R:1 pbc="T T T"
Si      -1.68003659       1.67539394       0.25090667       0.00000000
Si       0.35341155      -0.23597694       2.36044830       0.00000000
Si       1.63908353       1.05476122      -1.43302721       0.00000000
Si      -1.06603390      -1.68521681      -1.38092031       0.00000000
H        1.88801265      -1.64100575       0.27065828       0.00000000
H        0.54325521       2.45469125       1.38039516       0.00000000
H       -1.08830233       0.05411538       2.80064364       0.00000000
Si      -2.41243499      -0.27829836      -2.75688085       0.00000000
Si       0.34813359       2.46762551      -2.78932366       0.00000000
Si      -3.54142974       0.83461816      -1.00371422       0.00000000
