10
Lattice="16.290000149 0.0 0.0 0.0 16.290000149 0.0 0.0 0.0 29.1751946751" Properties=species:S:1:pos:R:3:initial_magmoms:R:1 pbc="T T T"
Si      -0.72707158       1.32574537      -1.80740331       0.00000000
Si      -0.62387443       1.05422365       2.03143963       0.00000000
Si       2.03602196      -0.83918587      -0.92885067       0.00000000
Si      -1.50563584      -1.87892446      -0.07439675       0.00000000
H        2.45801441       1.35519769       0.98518797       0.00000000
H        1.25931475      -0.82517322       2.75583054       0.00000000
Si       0.61880824      -1.84561955      -2.50200635       0.00000000
Si      -2.48888396       2.26523855      -0.56923722       0.00000000
Si      -0.71265493      -0.31672647      -3.64821222       0.00000000
Si       2.59625135      -2.65916333       0.51120776       0.00000000
