10
Lattice="16.290000149 0.0 0.0 0.0 16.290000149 0.0 0.0 0.0 29.1751946751" Properties=species:S:1:pos:R:3:initial_magmoms:R:1 pbc="T T T"
Si       1.35876683      -1.33986880       1.38042142       0.00000000
Si      -1.50648129      -1.38463372      -1.16723419       0.00000000
Si      -1.40058000       1.34910523       1.36891180       0.00000000
Si       1.48734380       1.19894401      -1.43604684       0.00000000
Si      -2.64559214       0.11697849      -2.55033505       0.00000000
Si      -0.24286761      -2.81129565      -2.49402693       0.00000000
Si       2.66066364       2.66685221       0.01397784       0.00000000
Si       0.13170465       2.60734484      -2.74951411       0.00000000
Si      -0.01540871      -2.70070283       2.74210361       0.00000000
Si       2.67907134       0.00102627       2.77466313       0.00000000
