10
Lattice="16.290000149 0.0 0.0 0.0 16.290000149 0.0 0.0 0.0 29.1751946751" Properties=species:S:1:pos:R:3:initial_magmoms:R:1 pbc="T T T"
Si      -1.48551932       1.07088832       1.43469020       0.00000000
Si      -1.41923531      -1.43957989      -1.16522810       0.00000000
Si       1.56310534      -1.07575903       1.36501983       0.00000000
Si       1.33006059       1.47569482      -1.26728293       0.00000000
H       -2.51506362      -0.03964986       1.64819427       0.00000000
Si       1.98788338       0.73671526       2.84989137       0.00000000
Si      -0.32048946       0.91331515       3.45110460       0.00000000
Si       0.01697255      -2.67921632      -2.53745421       0.00000000
Si      -2.71018524      -0.02671560      -2.52152455       0.00000000
Si      -0.07895926       2.68332140      -2.65322138       0.00000000
