10
Lattice="16.290000149 0.0 0.0 0.0 16.290000149 0.0 0.0 0.0 29.1751946751" Properties=species:S:1:pos:R:3:initial_magmoms:R:1 pbc="T T T"
Si       1.36047565       1.36370107      -1.34132958       0.00000000
Si      -1.35381304       1.38740302       1.33424000       0.00000000
Si       1.38771253      -1.34374582       1.34593926       0.00000000
Si      -1.35757603      -1.36348930      -1.35717171       0.00000000
Si      -2.71699283       0.03191211       2.66101116       0.00000000
Si       0.04634505      -2.79187797       2.59825531       0.00000000
Si       0.00014661       2.71690161      -2.69348315       0.00000000
Si       2.69224832       2.71794743       0.04294589       0.00000000
Si       2.71143794       0.00291591      -2.70130210       0.00000000
Si      -2.72621297      -0.01505196      -2.69855963       0.00000000
