10
Lattice="16.290000149 0.0 0.0 0.0 16.290000149 0.0 0.0 0.0 29.1751946751" Properties=species:S:1:pos:R:3:initial_magmoms:R:1 pbc="T T T"
Si      -1.16502986       0.15757317      -2.01641440       0.00000000
Si       0.22544872       1.85403008       1.43355237       0.00000000
Si       2.30837284      -0.17659989      -0.60121324       0.00000000
Si      -1.16162525      -2.05583060       0.58986409       0.00000000
H       -2.72178372       0.59684932      -0.00020423       0.00000000
H       -2.19457416      -0.95296501      -1.80291033       0.00000000
Si      -3.17050807      -0.68647690       0.66764515       0.00000000
Si       1.66341916       0.66787372       2.87778285       0.00000000
Si       1.88359480      -1.98907418      -2.08608477       0.00000000
Si       0.32048946      -0.91331515      -3.45110460       0.00000000
