10
Lattice="16.290000149 0.0 0.0 0.0 16.290000149 0.0 0.0 0.0 29.1751946751" Properties=species:S:1:pos:R:3:initial_magmoms:R:1 pbc="T T T"
Si       2.26538679      -0.49837626       0.10943616       0.00000000
Si      -0.28919637       0.72244847       2.20824131       0.00000000
Si      -0.56022940       1.81997746      -1.44005843       0.00000000
Si      -1.52176294      -1.84526606      -0.43538143       0.00000000
H       -1.33693660       1.83399012       2.24462278       0.00000000
Si       2.54257580      -1.31567815      -2.04483104       0.00000000
Si      -1.12321180      -1.20963025       3.21773222       0.00000000
Si      -1.97744312       0.81354378      -3.01321411       0.00000000
Si      -2.68058468      -1.98140159       1.62085712       0.00000000
Si      -3.10158345      -0.86882716      -1.90318547       0.00000000
