10
Lattice="16.290000149 0.0 0.0 0.0 16.290000149 0.0 0.0 0.0 29.1751946751" Properties=species:S:1:pos:R:3:initial_magmoms:R:1 pbc="T T T"
Si      -2.04454163       0.60023764      -0.93795333       0.00000000
Si       1.00030375      -1.64906604      -1.31758097       0.00000000
Si      -0.51789168      -1.27625309       1.91444710       0.00000000
Si       1.50563584       1.87892446       0.07439675       0.00000000
Si       2.12444408       0.03330491      -2.42760960       0.00000000
Si      -3.28412919      -1.18973690      -0.09338980       0.00000000
Si      -2.13558644       0.25961536       2.96612534       0.00000000
Si       2.58012425      -2.62550494       0.15022308       0.00000000
Si       0.88176142       2.93314810       2.10583638       0.00000000
Si       0.77856427       3.20466983      -1.73300656       0.00000000
