10
Lattice="16.290000149 0.0 0.0 0.0 16.290000149 0.0 0.0 0.0 29.1751946751" Properties=species:S:1:pos:R:3:initial_magmoms:R:1 pbc="T T T"
Si      -1.34674318      -1.33309216      -1.38865174       0.00000000
Si      -1.34374582       1.30329775       1.42372032       0.00000000
Si       1.30274389       1.35376417      -1.43446847       0.00000000
Si       1.34843734      -1.38482920       1.36181056       0.00000000
Si       2.69316219       2.64082079      -0.00005835       0.00000000
Si      -2.69001659       2.64815129       0.05849627       0.00000000
Si       2.66324561      -0.10443519      -2.72152634       0.00000000
Si      -2.68837130      -2.75120184      -0.02900014       0.00000000
Si       0.01386279       2.65132784       2.79122005       0.00000000
Si       2.71292685      -0.05520681       2.74086366       0.00000000
