10
Lattice="16.290000149 0.0 0.0 0.0 16.290000149 0.0 0.0 0.0 29.1751946751" Properties=species:S:1:pos:R:3:initial_magmoms:R:1 pbc="T T T"
H        0.53568036       0.25811505      -1.38541329       0.00000000
Si       1.68930560      -0.92918161       1.31130830       0.00000000
Si      -0.84885562       1.87401791       1.11676810       0.00000000
Si      -1.79822054      -1.59544261      -0.11932655       0.00000000
H        1.80607232       2.01305306      -0.96205204       0.00000000
H       -1.06189624       1.10382670      -2.55498850       0.00000000
H       -0.13830210      -0.66774340      -3.00274021       0.00000000
Si      -2.16073820       0.50772672       2.60193139       0.00000000
Si       2.66064572      -2.38303154      -0.20092957       0.00000000
Si       0.42492465      -2.41267934       2.63775853       0.00000000
