10
Lattice="16.290000149 0.0 0.0 0.0 16.290000149 0.0 0.0 0.0 29.1751946751" Properties=species:S:1:pos:R:3:initial_magmoms:R:1 pbc="T T T"
H       -0.64857007       0.42619527      -0.04277084       0.00000000
Si       1.98483878       0.62478667       1.08272065       0.00000000
H       -1.79696621      -1.20386359       1.08207880       0.00000000
Si       0.75409669      -0.55193779      -2.49920553       0.00000000
Si       0.20458611       2.17323263       1.70946218       0.00000000
Si      -2.51688647      -1.28405926      -0.24229999       0.00000000
Si      -0.91246807      -2.06892776      -1.76997154       0.00000000
Si       2.61548984       0.28883799      -1.24458463       0.00000000
Si       1.22394916      -1.24452343       2.36476623       0.00000000
Si      -0.73438579       1.24719499      -2.62261660       0.00000000
