10
Lattice="16.290000149 0.0 0.0 0.0 16.290000149 0.0 0.0 0.0 29.1751946751" Properties=species:S:1:pos:R:3:initial_magmoms:R:1 pbc="T T T"
H       -1.18130194      -0.53431200      -1.05103639       0.00000000
Si      -1.53834616       1.27127161       1.19705824       0.00000000
Si       1.13911084      -1.50161221       1.38310087       0.00000000
Si       1.66915161       0.78270193      -1.44741058       0.00000000
Si      -2.47901222      -1.08396919      -1.96923811       0.00000000
Si       3.08210061      -1.16747173      -1.45429593       0.00000000
Si      -0.14314023       2.59203224       2.56288039       0.00000000
Si       2.64559214      -0.11697849       2.55033505       0.00000000
Si       2.77729679       2.49036635      -0.19917905       0.00000000
Si       2.40272452      -2.92827414       0.05630813       0.00000000
