10
Lattice="16.290000149 0.0 0.0 0.0 16.290000149 0.0 0.0 0.0 29.1751946751" Properties=species:S:1:pos:R:3:initial_magmoms:R:1 pbc="T T T"
Si       0.61463800       0.74494171      -1.14903587       0.00000000
H       -1.54839709      -0.92106919      -0.40579778       0.00000000
H       -0.63716707      -1.67787002       1.12158201       0.00000000
Si       2.15896259       2.00811719      -0.01695079       0.00000000
Si       0.55301293      -2.17666982       1.92238275       0.00000000
Si      -2.27001152       0.96417253       1.64200913       0.00000000
Si      -2.53011395       1.85448620      -0.59540737       0.00000000
Si       1.87818815      -0.59245102      -2.53304875       0.00000000
Si      -0.95131972       1.91474291      -2.39977646       0.00000000
Si      -2.29544021      -1.83304856      -1.33190599       0.00000000
