10
Lattice="16.290000149 0.0 0.0 0.0 16.290000149 0.0 0.0 0.0 29.1751946751" Properties=species:S:1:pos:R:3:initial_magmoms:R:1 pbc="T T T"
Si       1.05119371      -1.46663758      -1.47897814       0.00000000
Si      -1.31549896      -1.35321031       1.38628855       0.00000000
Si      -1.44164872       1.34672689      -1.28688866       0.00000000
Si       1.81182269       0.75399895       1.38424629       0.00000000
Si       2.15171354      -1.19560456       2.75693920       0.00000000
Si       0.28033461      -2.65948913       2.59738006       0.00000000
Si       2.42352848      -0.15229521      -2.84014685       0.00000000
Si      -2.70444953       0.12048084       2.60096861       0.00000000
Si       2.27250389      -2.99776728      -0.23841969       0.00000000
Si      -0.14472036       2.59085936      -2.78485986       0.00000000
