10
Lattice="16.290000149 0.0 0.0 0.0 16.290000149 0.0 0.0 0.0 29.1751946751" Properties=species:S:1:pos:R:3:initial_magmoms:R:1 pbc="T T T"
Si      -1.37060803       1.36060271      -1.31317551       0.00000000
Si      -1.38932524      -1.35904213       1.30229316       0.00000000
Si       1.32379057      -1.35197227      -1.38442134       0.00000000
Si       1.35537688       1.37203341       1.33800360       0.00000000
Si      -0.00842193      -2.70617627       2.63685409       0.00000000
Si      -0.02448387       2.69066819      -2.65980622       0.00000000
Si       2.67366143       0.04313724      -2.69475519       0.00000000
Si       2.73830016       0.01255959       2.65885219       0.00000000
Si      -2.70562241       0.01099575       2.69292882       0.00000000
Si      -0.00428427       2.72908002       2.67819535       0.00000000
