10
Lattice="16.290000149 0.0 0.0 0.0 16.290000149 0.0 0.0 0.0 29.1751946751" Properties=species:S:1:pos:R:3:initial_magmoms:R:1 pbc="T T T"
Si       1.53538301      -1.26739101       1.22106942       0.00000000
Si      -1.39336516      -1.41750206      -1.26036841       0.00000000
Si      -1.21684672       1.44870718       1.42089033       0.00000000
Si       1.39075876       1.34226832      -1.38033681       0.00000000
H       -0.56767393      -1.83895694       3.09084930       0.00000000
Si      -2.57137652       2.74798130      -0.01479182       0.00000000
Si      -2.65129526      -0.02125519      -2.69135336       0.00000000
Si       0.41125734      -2.91215844       2.38723113       0.00000000
Si       0.03986163      -2.69763543      -2.67052227       0.00000000
Si       2.71272160       0.07291567       2.72691792       0.00000000
