10
Lattice="16.290000149 0.0 0.0 0.0 16.290000149 0.0 0.0 0.0 29.1751946751" Properties=species:S:1:pos:R:3:initial_magmoms:R:1 pbc="T T T"
Si      -1.03128733       1.27016389      -1.64530593       0.00000000
Si       1.73739368       1.07515630       1.12835065       0.00000000
Si       1.32349735      -1.26548866      -1.46091870       0.00000000
Si      -1.35506737      -1.24364377       1.48058278       0.00000000
H       -2.01021860       2.34336539      -0.94168776       0.00000000
Si      -2.32694507       0.54556840       2.73780027       0.00000000
Si       3.38533896      -0.58381732       1.21899798       0.00000000
H       -3.19024992      -0.73795330      -1.62835514       0.00000000
Si       2.73251721      -2.47311524      -0.07498025       0.00000000
Si      -2.57561192       0.00698841      -2.77739101       0.00000000
