10
Lattice="16.290000149 0.0 0.0 0.0 16.290000149 0.0 0.0 0.0 29.1751946751" Properties=species:S:1:pos:R:3:initial_magmoms:R:1 pbc="T T T"
Si       1.81957673      -0.88532893       1.14807309       0.00000000
Si      -0.87537574       1.78079024       1.28484640       0.00000000
Si       1.11679354       1.44251209      -1.55095335       0.00000000
Si      -1.02232783      -2.15225111      -0.38840937       0.00000000
H       -1.92567350      -0.57987514      -1.88072057       0.00000000
Si       2.60042159       2.45980631      -0.08326601       0.00000000
Si      -0.05372442      -2.55062958      -2.54349347       0.00000000
Si      -1.95621725       0.61390495       2.99048663       0.00000000
H        3.16229628      -0.62848450      -1.75156199       0.00000000
Si       0.99600319       3.24467481       1.44440554       0.00000000
