10
Lattice="16.290000149 0.0 0.0 0.0 16.290000149 0.0 0.0 0.0 29.1751946751" Properties=species:S:1:pos:R:3:initial_magmoms:R:1 pbc="T T T"
Si       1.35966115      -1.35704661      -1.34019174       0.00000000
Si       1.37298637       1.34759026       1.34308009       0.00000000
Si      -1.34558659      -1.35478393       1.36481561       0.00000000
Si      -1.32963868       1.36990756      -1.37257621       0.00000000
Si       0.00221544       2.70391196       2.67624061       0.00000000
Si       2.70852203       0.01646919      -2.67708669       0.00000000
Si       0.04676859      -2.70265763       2.69403748       0.00000000
Si       0.00428427      -2.72908001      -2.67819535       0.00000000
Si      -2.68851791       2.72538218      -0.01843872       0.00000000
Si      -2.70133814      -2.71808426       0.01473347       0.00000000
