10
Lattice="16.290000149 0.0 0.0 0.0 16.290000149 0.0 0.0 0.0 29.1751946751" Properties=species:S:1:pos:R:3:initial_magmoms:R:1 pbc="T T T"
H        0.61716295      -0.84823660       1.08835146       0.00000000
Si      -1.42833979       1.22275999       1.28896010       0.00000000
Si      -1.43469289      -1.33415101      -1.21001202       0.00000000
Si       1.51172830       1.35461125      -1.15740915       0.00000000
Si       0.05528826       2.24005421       2.75664744       0.00000000
Si       0.08368173      -2.65170414      -2.41103809       0.00000000
Si       2.80505658      -2.19115163       0.58478760       0.00000000
Si       1.05437026      -3.50654797      -0.41942260       0.00000000
Si       0.16811280       2.70150104      -2.54060513       0.00000000
Si      -2.67320531       0.05597244      -2.58188803       0.00000000
