10
Lattice="16.290000149 0.0 0.0 0.0 16.290000149 0.0 0.0 0.0 29.1751946751" Properties=species:S:1:pos:R:3:initial_magmoms:R:1 pbc="T T T"
Si       1.34923555       1.34342002       1.31235861       0.00000000
Si      -1.30989520       1.42788367      -1.29610802       0.00000000
Si       1.43964505      -1.33408585      -1.27974074       0.00000000
Si      -1.37023336      -1.25455807       1.43267711       0.00000000
Si      -2.66010815       0.04145805      -2.61931980       0.00000000
Si       0.07200180      -2.69223203      -2.60861251       0.00000000
Si      -0.01488906      -2.61101009       2.73677914       0.00000000
Si      -2.68087790      -2.68472234       0.11036976       0.00000000
Si      -2.60727968       2.78686065       0.12282757       0.00000000
Si       0.06722883       2.75742462      -2.65065396       0.00000000
