10
Lattice="16.290000149 0.0 0.0 0.0 16.290000149 0.0 0.0 0.0 29.1751946751" Properties=species:S:1:pos:R:3:initial_magmoms:R:1 pbc="T T T"
Si       1.32142852       1.32628294      -1.36495740       0.00000000
Si      -1.25810929       1.40074453       1.36449176       0.00000000
Si      -1.72553456      -0.94009591      -1.27508117       0.00000000
Si       1.45019579      -1.38486178       1.22614591       0.00000000
Si      -3.43080435       0.72817930      -1.14810226       0.00000000
Si      -2.57282633       2.66458790      -0.10826915       0.00000000
Si      -2.59082678      -2.66811795       0.10717216       0.00000000
Si       2.58504220      -0.10037898      -2.69175014       0.00000000
Si      -2.66924684      -0.00374670       2.62186971       0.00000000
Si       2.81250111       0.01021383       2.54438040       0.00000000
