10
Lattice="16.290000149 0.0 0.0 0.0 16.290000149 0.0 0.0 0.0 29.1751946751" Properties=species:S:1:pos:R:3:initial_magmoms:R:1 pbc="T T T"
Si       0.45641322       2.20755566      -0.61069518       0.00000000
Si       1.07585677       0.08710263       2.09918443       0.00000000
Si      -0.42477804      -1.81247429      -1.48487153       0.00000000
Si      -2.30837284       0.17659989       0.60121324       0.00000000
H        2.73577521       1.01480185      -0.78422923       0.00000000
H       -0.07853409      -2.93435031       1.03650714       0.00000000
H        1.81218107       2.78637195      -0.33647752       0.00000000
Si      -1.27508347      -3.29983275       0.14640113       0.00000000
Si      -2.08292413       2.03062997       2.03476560       0.00000000
Si      -1.98788338      -0.73671526      -2.84989137       0.00000000
