10
Lattice="16.290000149 0.0 0.0 0.0 16.290000149 0.0 0.0 0.0 29.1751946751" Properties=species:S:1:pos:R:3:initial_magmoms:R:1 pbc="T T T"
Si      -1.34136748      -1.44813214       1.25231606       0.00000000
Si       1.34451145      -1.36462960      -1.35037389       0.00000000
Si      -1.38771253       1.34374582      -1.34593926       0.00000000
Si       1.25737624       1.36536265       1.45858468       0.00000000
Si      -2.71256195      -0.07784991       2.50851241       0.00000000
Si       2.63629217       2.69377958       0.06885346       0.00000000
Si      -0.02723688       2.70744689      -2.68726883       0.00000000
Si       2.69243892      -0.01024641      -2.70681621       0.00000000
Si       2.69004246      -2.72148887       0.01695079       0.00000000
Si      -0.02666673      -2.71220357      -2.70567838       0.00000000
