10
Lattice="16.290000149 0.0 0.0 0.0 16.290000149 0.0 0.0 0.0 29.1751946751" Properties=species:S:1:pos:R:3:initial_magmoms:R:1 pbc="T T T"
Si      -1.12412567      -1.64476743       1.16616171       0.00000000
Si       1.17733858       1.34030668       1.50584850       0.00000000
Si      -1.53538301       1.26739101      -1.22106942       0.00000000
Si       1.35085804      -1.41946044      -1.27848621       0.00000000
H       -2.10305694      -0.57156593       1.86977988       0.00000000
Si       2.55487312      -0.11223680       2.65619725       0.00000000
Si      -0.14462425       2.60965933      -2.60140623       0.00000000
Si       2.58520510       2.63929084       0.11001966       0.00000000
Si       2.67851423      -0.06468629      -2.63778770       0.00000000
Si      -0.05922381      -2.78399230      -2.60589921       0.00000000
