10
Lattice="16.290000149 0.0 0.0 0.0 16.290000149 0.0 0.0 0.0 29.1751946751" Properties=species:S:1:pos:R:3:initial_magmoms:R:1 pbc="T T T"
Si       1.31549896       1.35321031      -1.38628855       0.00000000
Si      -1.38895057       1.47369115       1.21468006       0.00000000
Si       1.59583357      -1.30627882       1.21109151       0.00000000
Si      -1.50268735      -1.33942897      -1.30343100       0.00000000
Si      -1.69539806      -2.39634047       2.11100039       0.00000000
Si      -2.23925600      -0.01366731       2.84595271       0.00000000
Si       2.36669267      -0.11342727      -2.86526669       0.00000000
Si       3.46721250       0.15760575       1.37065065       0.00000000
Si       3.12732165       2.10720926      -0.00204226       0.00000000
H        2.07265817       0.99404839       2.99786795       0.00000000
