10
Lattice="16.290000149 0.0 0.0 0.0 16.290000149 0.0 0.0 0.0 29.1751946751" Properties=species:S:1:pos:R:3:initial_magmoms:R:1 pbc="T T T"
Si       1.37060152       1.36922338       1.32434961       0.00000000
Si       1.37970926      -1.34768963      -1.34130040       0.00000000
Si      -1.32460507       1.38175039      -1.36227737       0.00000000
Si      -1.35177679      -1.35122945       1.37362652       0.00000000
Si      -2.68354946      -2.70547580      -0.01064895       0.00000000
Si      -2.69423570       0.03425787      -2.69928901       0.00000000
Si       0.00527796       2.72013680       2.67373154       0.00000000
Si       2.69728193       0.00881289       2.69902643       0.00000000
Si       2.70431921       0.03608235      -2.70287756       0.00000000
Si      -2.69136866       2.72751617      -0.01414997       0.00000000
