10
Lattice="16.28999089631971 0.0 0.0 0.0 16.28999089631971 0.0 0.0 0.0 34.71893929493243" Properties=species:S:1:pos:R:3:initial_magmoms:R:1 pbc="T T T"
Si       1.86500952       0.97842627       1.08636004       0.00000000
Si      -0.89663744      -1.86114716       1.16552621       0.00000000
Si       1.04260887      -1.72237102      -1.30537143       0.00000000
Si      -1.97419162       1.54782693      -0.29095290       0.00000000
Si       2.65877235      -0.04531878      -1.87944942       0.00000000
Si       0.42171552       2.26769832       2.49309586       0.00000000
Si      -2.32118328      -0.47589606       2.49364789       0.00000000
Si      -1.03201060       3.47529231       0.99508389       0.00000000
Si      -0.83213230      -2.94578423      -2.28357810       0.00000000
Si       2.65505823      -2.97796675      -0.11657793       0.00000000
