10
Lattice="16.28999089631971 0.0 0.0 0.0 16.28999089631971 0.0 0.0 0.0 34.71893929493243" Properties=species:S:1:pos:R:3:initial_magmoms:R:1 pbc="T T T"
Si      -1.35840681      -1.34016201      -1.38077299       0.00000000
Si       1.35769005       1.37824803      -1.37605121       0.00000000
Si      -1.36019871       1.29656997       1.46007109       0.00000000
Si       1.34293131      -1.39097052       1.54148705       0.00000000
Si       2.48880249       0.15941394       2.88924230       0.00000000
Si      -2.70946846      -2.68976733       0.00701323       0.00000000
Si       2.71681362      -2.68782719       0.00069438       0.00000000
Si      -0.00089595      -2.69758327      -2.73988134       0.00000000
Si      -2.71663769       2.73215880       0.01958149       0.00000000
Si       2.70914103       2.74507677       0.01017265       0.00000000
