10
Lattice="16.28999089631971 0.0 0.0 0.0 16.28999089631971 0.0 0.0 0.0 34.71893929493243" Properties=species:S:1:pos:R:3:initial_magmoms:R:1 pbc="T T T"
Si       1.19580003      -1.54440929      -1.28500421       0.00000000
Si       1.35498591       1.35843939       1.36504877       0.00000000
Si      -1.36640520      -1.35535569       1.36820820       0.00000000
Si      -1.26776925       1.43382951      -1.41372128       0.00000000
Si      -0.47772054      -2.52256351      -2.61665925       0.00000000
Si       2.68446168       2.72300382      -0.01903988       0.00000000
Si      -2.71283886      -2.69989550       0.05218954       0.00000000
Si       2.70817992      -0.00089595       2.72283781       0.00000000
Si      -2.71106325       2.72310156      -0.00698545       0.00000000
Si      -0.00690696       2.71526607       2.72127545       0.00000000
