10
Lattice="16.28999089631971 0.0 0.0 0.0 16.28999089631971 0.0 0.0 0.0 34.71893929493243" Properties=species:S:1:pos:R:3:initial_magmoms:R:1 pbc="T T T"
Si       1.50570099      -1.19578553       1.30153044       0.00000000
Si      -1.19580003       1.54440929       1.28500421       0.00000000
Si      -1.67352057      -0.97815423      -1.33165503       0.00000000
Si       1.84472847       0.83952470      -1.28266242       0.00000000
Si       0.35434008       0.61651460      -3.07247998       0.00000000
Si      -0.11049507      -1.67756442      -2.94106872       0.00000000
Si       0.15864831      -2.52505167       2.65553858       0.00000000
Si      -2.63218707      -2.55536736       0.06490709       0.00000000
Si      -2.56220523       0.18905359       2.65321241       0.00000000
Si       2.66843232      -2.64193242      -0.16426234       0.00000000
