10
Lattice="16.28999089631971 0.0 0.0 0.0 16.28999089631971 0.0 0.0 0.0 34.71893929493243" Properties=species:S:1:pos:R:3:initial_magmoms:R:1 pbc="T T T"
Si       1.36075257       1.34420193      -1.38754318       0.00000000
Si      -1.35145098      -1.36682874      -1.38622386       0.00000000
Si       1.30385160      -1.47960441       1.38160624       0.00000000
Si      -1.28705661       1.43068554       1.58037228       0.00000000
Si      -2.70601335       2.70661608       0.01260298       0.00000000
Si       2.71085148       2.72292237      -0.00736042       0.00000000
Si       0.00498474       2.70296712      -2.74949850       0.00000000
Si      -2.70914103      -2.74507677      -0.01017265       0.00000000
Si       2.71681362      -2.74072734      -0.02961527       0.00000000
Si      -2.71130760      -0.01329264      -2.75081782       0.00000000
