10
Lattice="16.28999089631971 0.0 0.0 0.0 16.28999089631971 0.0 0.0 0.0 34.71893929493243" Properties=species:S:1:pos:R:3:initial_magmoms:R:1 pbc="T T T"
Si       2.05918632      -0.09518247       1.13537939       0.00000000
Si       0.09596439      -0.64311291      -2.28447276       0.00000000
Si      -1.18105758      -1.77991056       1.10017436       0.00000000
Si      -0.72803268       2.33566020       0.10842731       0.00000000
Si       1.72470375       1.77083703       2.46452528       0.00000000
Si      -2.13842088      -0.26756325      -2.86160601       0.00000000
Si       1.31191515       3.36934215       0.77555210       0.00000000
Si      -0.95366547       2.99698533      -2.10133026       0.00000000
Si       2.28442815      -2.20012740       2.14160425       0.00000000
Si       0.40426893      -3.51139095       1.56318640       0.00000000
