10
Lattice="16.28999089631971 0.0 0.0 0.0 16.28999089631971 0.0 0.0 0.0 34.71893929493243" Properties=species:S:1:pos:R:3:initial_magmoms:R:1 pbc="T T T"
Si       0.33448257      -1.86601950      -1.32914590       0.00000000
Si       1.79579331       0.73251243       1.26880435       0.00000000
Si      -1.71817146      -0.21491397       1.57710870       0.00000000
Si      -0.41278860       1.59850512      -1.68897318       0.00000000
Si       3.41783748       0.01257588      -0.24053295       0.00000000
Si       2.48194440      -1.19728242      -2.04584936       0.00000000
Si      -2.45273643       0.56482317      -2.35609798       0.00000000
Si      -0.39335463       3.46180419      -0.18793372       0.00000000
Si      -1.72470375      -1.77083703      -2.46452528       0.00000000
Si       1.05210594       2.96727237       1.67709930       0.00000000
