10
Lattice="16.28999089631971 0.0 0.0 0.0 16.28999089631971 0.0 0.0 0.0 34.71893929493243" Properties=species:S:1:pos:R:3:initial_magmoms:R:1 pbc="T T T"
Si       2.18103552      -0.78201774       0.31434545       0.00000000
Si      -0.44769807      -1.33985250      -1.96009353       0.00000000
Si      -1.84909419      -0.17324415       1.54620883       0.00000000
Si       1.06246638       2.22817878       0.15578397       0.00000000
Si       3.10625865       0.56040858      -1.35636556       0.00000000
Si      -3.04194573       1.79225838       0.47971185       0.00000000
Si       0.74899791      -3.25237995      -1.32237570       0.00000000
Si      -2.50374042      -2.54767455       0.53644263       0.00000000
Si       0.28061154       2.84003118       2.25626469       0.00000000
Si      -0.86868054       1.04928777       3.43665756       0.00000000
