10
Lattice="16.28999089631971 0.0 0.0 0.0 16.28999089631971 0.0 0.0 0.0 34.71893929493243" Properties=species:S:1:pos:R:3:initial_magmoms:R:1 pbc="T T T"
Si      -1.94577534       0.62701839       1.32102166       0.00000000
Si      -0.46745784       0.05778063      -2.39161547       0.00000000
Si       1.52371773       1.94678532       0.24605326       0.00000000
Si       1.19285154      -1.96550253       1.06649697       0.00000000
Si       3.04194573      -1.79225838      -0.47971185       0.00000000
Si      -0.48099483       2.03484906       2.96435820       0.00000000
Si       2.17326519      -0.74297061       2.95694570       0.00000000
Si      -0.91430883      -2.13218181      -3.08957070       0.00000000
Si      -3.77348402       0.43948791      -0.82016596       0.00000000
Si       3.32255727       1.04777280       1.77655284       0.00000000
