10
Lattice="16.28999089631971 0.0 0.0 0.0 16.28999089631971 0.0 0.0 0.0 34.71893929493243" Properties=species:S:1:pos:R:3:initial_magmoms:R:1 pbc="T T T"
Si       1.81959300       1.28876706       0.77128167       0.00000000
Si      -1.89680760       1.62746874      -0.27695313       0.00000000
Si       0.96593184      -0.88259220      -2.23374836       0.00000000
Si      -0.64884699      -1.46329812       2.10150385       0.00000000
Si       1.59773949       1.13277402       3.15564087       0.00000000
Si       2.91004560      -2.14457850      -1.12656077       0.00000000
Si       3.88169523      -0.08962758       0.22886738       0.00000000
Si       1.55589048       3.61036899      -0.54074778       0.00000000
Si      -0.24241149      -3.73705632       1.54568804       0.00000000
Si      -4.01717916       0.52761681       0.39076188       0.00000000
