10
Lattice="16.28999089631971 0.0 0.0 0.0 16.28999089631971 0.0 0.0 0.0 34.71893929493243" Properties=species:S:1:pos:R:3:initial_magmoms:R:1 pbc="T T T"
Si      -1.79579331      -0.73251243      -1.26880435       0.00000000
Si      -0.22125078      -1.18889307       1.98220951       0.00000000
Si       1.62204417      -0.71993655      -1.50933729       0.00000000
Si      -0.74368737       2.23475994       0.40829495       0.00000000
Si      -2.40805296      -0.23309361       2.29971439       0.00000000
Si       2.70620883       1.30160358      -1.92002785       0.00000000
Si       1.73846880      -0.50989329       3.12251899       0.00000000
Si      -3.51396477      -0.94742640       0.30830435       0.00000000
Si       3.15773505      -1.99306521      -0.20244625       0.00000000
Si      -2.18914794       2.72929176      -1.45673807       0.00000000
