10
Lattice="16.28999089631971 0.0 0.0 0.0 16.28999089631971 0.0 0.0 0.0 34.71893929493243" Properties=species:S:1:pos:R:3:initial_magmoms:R:1 pbc="T T T"
Si      -0.93768498      -2.11584294       0.43041093       0.00000000
Si      -1.25234262       1.61953618       1.25255587       0.00000000
Si       2.33616519      -0.57324510       0.26226701       0.00000000
Si       2.91542130       1.54274349      -0.39548366       0.00000000
Si       0.14398731       1.15332127      -3.27517825       0.00000000
Si       0.26296947       3.47311664       1.25210453       0.00000000
Si      -3.28095750      -1.91203875       0.01166557       0.00000000
Si      -2.09271114       2.33081297      -2.30311684       0.00000000
Si      -3.73690808       0.01966203      -1.24856319       0.00000000
Si      -0.43350948      -2.99441151       2.59611014       0.00000000
