10
Lattice="16.28999089631971 0.0 0.0 0.0 16.28999089631971 0.0 0.0 0.0 34.71893929493243" Properties=species:S:1:pos:R:3:initial_magmoms:R:1 pbc="T T T"
Si      -1.49038839      -0.22301010      -1.78981756       0.00000000
Si      -1.84472847      -0.83952470       1.28266242       0.00000000
Si       1.73916927      -1.67434484      -0.11500972       0.00000000
Si       0.87713505       1.93530087       1.17455452       0.00000000
Si       1.89635148       0.66466458      -2.50856945       0.00000000
Si      -0.33902748      -2.03531023       2.58419285       0.00000000
Si       2.37386025       0.70560135       2.56973935       0.00000000
Si      -1.95522354      -2.51708912      -1.65840631       0.00000000
Si      -0.26179659       0.41026365      -3.67068243       0.00000000
Si       1.17024102       2.88062586      -2.03396128       0.00000000
