10
Lattice="16.28999089631971 0.0 0.0 0.0 16.28999089631971 0.0 0.0 0.0 34.71893929493243" Properties=species:S:1:pos:R:3:initial_magmoms:R:1 pbc="T T T"
Si      -1.35456237       1.35418133      -1.36126093       0.00000000
Si       1.36252818      -1.36127437      -1.35830982       0.00000000
Si      -1.36857177      -1.36645459       1.35070637       0.00000000
Si       1.36010097       1.38439276       1.35306726       0.00000000
Si       0.07309323      -2.61783610       2.67033927       0.00000000
Si      -2.70778896       2.70900108      -0.00548560       0.00000000
Si       2.64995946       0.07893872       2.76762179       0.00000000
Si      -2.71143792      -2.71634173      -0.00284695       0.00000000
Si      -2.71072116      -0.00375487      -2.71773065       0.00000000
Si       0.00413766       2.71168893      -2.71738346       0.00000000
