10
Lattice="16.28999089631971 0.0 0.0 0.0 16.28999089631971 0.0 0.0 0.0 34.71893929493243" Properties=species:S:1:pos:R:3:initial_magmoms:R:1 pbc="T T T"
Si      -1.34200278      -1.34755767       1.37474925       0.00000000
Si       1.37189493       1.36544409       1.37561722       0.00000000
Si       1.30737024      -1.42153056      -1.39524732       0.00000000
Si      -1.31989725       1.47312099      -1.41169716       0.00000000
Si       2.04861411       0.40154850      -2.79532548       0.00000000
Si       0.41852268       2.38725063      -2.80522038       0.00000000
Si      -2.72575683      -2.70084942      -0.00840199       0.00000000
Si       2.73429279      -2.69842221       0.01489791       0.00000000
Si      -2.70185940       0.00390960       2.73458670       0.00000000
Si       2.72621295       2.71560816       0.01637346       0.00000000
