10
Lattice="16.28999089631971 0.0 0.0 0.0 16.28999089631971 0.0 0.0 0.0 34.71893929493243" Properties=species:S:1:pos:R:3:initial_magmoms:R:1 pbc="T T T"
Si      -0.10523340      -1.15548228       2.00863064       0.00000000
Si      -0.52230627      -1.69059249      -1.57710870       0.00000000
Si       2.34302328       0.36258282      -0.16595662       0.00000000
Si      -1.73851767       1.61556075       0.23251287       0.00000000
Si      -2.76695424      -1.19786886      -2.17618433       0.00000000
Si      -3.17338974       1.07588934      -1.62036852       0.00000000
Si       0.93165768      -3.21028659       1.67647436       0.00000000
Si       0.08076582      -3.78463941      -0.55161482       0.00000000
Si      -0.92680326       3.67196148      -0.56623150       0.00000000
Si       0.83065968       0.05437602       3.81394705       0.00000000
