10
Lattice="16.28999089631971 0.0 0.0 0.0 16.28999089631971 0.0 0.0 0.0 34.71893929493243" Properties=species:S:1:pos:R:3:initial_magmoms:R:1 pbc="T T T"
Si       1.34267067       1.35351981       1.37300636       0.00000000
Si      -1.36518834      -1.36629117       1.36741660       0.00000000
Si       1.44329400      -1.28927205      -1.40673582       0.00000000
Si      -1.45372612       1.20759399      -1.49801197       0.00000000
Si      -0.42171552      -2.26769832      -2.49309586       0.00000000
Si      -2.39590714      -0.71987139      -2.78404876       0.00000000
Si       2.68442910       2.71419093      -0.00144778       0.00000000
Si      -2.73166100       2.69754255      -0.02343877       0.00000000
Si       2.70415629      -0.00783549       2.72826091       0.00000000
Si       2.71106325      -2.72310156       0.00698545       0.00000000
