10
Lattice="16.28999089631971 0.0 0.0 0.0 16.28999089631971 0.0 0.0 0.0 34.71893929493243" Properties=species:S:1:pos:R:3:initial_magmoms:R:1 pbc="T T T"
Si      -1.53569088       1.27312866      -1.30689104       0.00000000
Si       2.22858603      -0.25166421      -0.85627368       0.00000000
Si       0.33681204       1.69259616       1.70702704       0.00000000
Si      -1.07833284      -2.11186818       0.52949884       0.00000000
Si       0.80487261      -3.15068148       1.64470651       0.00000000
Si       0.60440787       3.63224646       0.35014070       0.00000000
Si      -3.15773505       1.99306521       0.20244625       0.00000000
Si      -0.45152622       3.29466879      -1.71758161       0.00000000
Si       2.81628036       1.72447569      -1.98588972       0.00000000
Si       3.67419321      -0.91375497       0.91522647       0.00000000
