10
Lattice="16.28999089631971 0.0 0.0 0.0 16.28999089631971 0.0 0.0 0.0 34.71893929493243" Properties=species:S:1:pos:R:3:initial_magmoms:R:1 pbc="T T T"
Si       1.45372612      -1.20759399       1.49801197       0.00000000
Si      -1.27793488       1.48994856       1.47457320       0.00000000
Si       1.20680230       1.44634023      -1.61024243       0.00000000
Si      -0.94218102      -1.92746538      -1.28603679       0.00000000
Si       1.03201060      -3.47529231      -0.99508389       0.00000000
Si      -2.74366021      -2.62814715       0.09262324       0.00000000
Si       2.89702012      -2.49686604       0.09127614       0.00000000
Si       0.08853778      -2.57388516       2.86542857       0.00000000
Si      -2.62891345       0.14472036       2.86980316       0.00000000
Si       2.67158281       2.85417090       0.03309411       0.00000000
