10
Lattice="16.28999089631971 0.0 0.0 0.0 16.28999089631971 0.0 0.0 0.0 34.71893929493243" Properties=species:S:1:pos:R:3:initial_magmoms:R:1 pbc="T T T"
Si      -0.92522313      -1.34242632       1.67071101       0.00000000
Si       1.53187902      -1.47575997      -1.09083496       0.00000000
Si       1.00268208       1.61215614       1.48058999       0.00000000
Si      -0.98052768       1.75655070      -1.35792791       0.00000000
Si      -2.04379227       1.66777020       1.51214953       0.00000000
Si      -3.10625865      -0.56040858       1.35636556       0.00000000
Si       0.77555061       1.96597494      -2.97586611       0.00000000
Si      -0.19911267      -3.55838760       1.19610285       0.00000000
Si       3.46761972      -0.17143596      -1.54402153       0.00000000
Si       2.12696901      -3.10575366       0.63577357       0.00000000
