10
Lattice="16.28999089631971 0.0 0.0 0.0 16.28999089631971 0.0 0.0 0.0 34.71893929493243" Properties=species:S:1:pos:R:3:initial_magmoms:R:1 pbc="T T T"
Si       1.35654975       1.35630540       1.35657387       0.00000000
Si      -1.35735285       1.35803214      -1.35681691       0.00000000
Si      -1.35706777      -1.35747828       1.35796263       0.00000000
Si       1.35757602      -1.35742941      -1.35765016       0.00000000
Si       0.00117288       2.71336014      -2.71415460       0.00000000
Si      -2.71455788      -2.71464705      -0.00055550       0.00000000
Si       2.71526607       2.71463076       0.00069438       0.00000000
Si       2.71508688      -2.71513575       0.00034719       0.00000000
Si       2.71383255      -0.00021177      -2.71651549       0.00000000
Si      -2.71553390       0.00043983      -2.71488369       0.00000000
