10
Lattice="16.28999089631971 0.0 0.0 0.0 16.28999089631971 0.0 0.0 0.0 34.71893929493243" Properties=species:S:1:pos:R:3:initial_magmoms:R:1 pbc="T T T"
Si      -0.00293220      -0.19526823       2.31002592       0.00000000
Si       2.06990514      -1.05046065      -0.00069438       0.00000000
Si      -2.02626423      -0.67598613      -0.90873402       0.00000000
Si       0.15239295       2.22477417      -0.75402634       0.00000000
Si       1.26312660       1.65222954       2.78567565       0.00000000
Si      -3.32114004       1.04019795       0.01485971       0.00000000
Si       1.61699427       2.97567801       0.88634030       0.00000000
Si       1.90306296      -2.25311877      -2.04109286       0.00000000
Si      -2.13079716       2.97562914      -0.72930645       0.00000000
Si      -1.80441072      -0.51999309      -3.29309323       0.00000000
