10
Lattice="16.28999089631971 0.0 0.0 0.0 16.28999089631971 0.0 0.0 0.0 34.71893929493243" Properties=species:S:1:pos:R:3:initial_magmoms:R:1 pbc="T T T"
Si       1.60946829       0.94079637      -1.52454420       0.00000000
Si       1.64537145      -0.35473104       1.79441466       0.00000000
Si      -2.06210223       1.37839464       0.54241429       0.00000000
Si      -0.97164963      -2.05495092      -1.35542815       0.00000000
Si      -0.02635722       2.26924587      -2.64329320       0.00000000
Si      -3.88169523       0.08962758      -0.22886738       0.00000000
Si      -2.91576339      -0.79296462      -2.46261574       0.00000000
Si      -2.28395574       1.22240160       2.92677350       0.00000000
Si       2.50369155      -0.85095702      -2.93836963       0.00000000
Si       3.86341785       0.13025484       1.04358246       0.00000000
