10
Lattice="16.28999089631971 0.0 0.0 0.0 16.28999089631971 0.0 0.0 0.0 34.71893929493243" Properties=species:S:1:pos:R:3:initial_magmoms:R:1 pbc="T T T"
Si      -1.45046160       0.71873109       1.66543373       0.00000000
Si      -1.02226266      -0.99460224      -1.90377938       0.00000000
Si      -0.19591983       1.94030190      -1.39601461       0.00000000
Si       1.81734498      -0.85146201       1.39712562       0.00000000
Si       1.71756873       2.89841454      -0.53897711       0.00000000
Si      -2.53462626      -1.30280904       2.07612429       0.00000000
Si      -0.36276201       0.73764378      -3.43641309       0.00000000
Si       1.88094114       0.83782728       3.03412452       0.00000000
Si       0.17573652      -2.94314688      -2.25218413       0.00000000
Si      -2.26875717       2.79549432       0.91470569       0.00000000
