10
Lattice="16.28999089631971 0.0 0.0 0.0 16.28999089631971 0.0 0.0 0.0 34.71893929493243" Properties=species:S:1:pos:R:3:initial_magmoms:R:1 pbc="T T T"
Si       1.26605880       1.84749777       0.47564973       0.00000000
Si       0.00293220       0.19526823      -2.31002592       0.00000000
Si       0.81829557      -2.07676323       0.75072804       0.00000000
Si      -1.21700961       1.85844465       1.10597243       0.00000000
Si       2.07283734      -0.85519242      -2.31072030       0.00000000
Si      -1.25235891       0.74569104       3.14991225       0.00000000
Si      -3.33327609       1.36355445       0.10061554       0.00000000
Si       2.26875717      -2.79549432      -0.91470569       0.00000000
Si       1.87422966      -1.73918556       2.81845035       0.00000000
Si      -2.02333203      -0.48071790      -3.21875994       0.00000000
