10
Lattice="16.28999089631971 0.0 0.0 0.0 16.28999089631971 0.0 0.0 0.0 34.71893929493243" Properties=species:S:1:pos:R:3:initial_magmoms:R:1 pbc="T T T"
Si      -1.05593409      -0.33757767      -2.06772230       0.00000000
Si      -0.80739756       2.06601183       0.84821888       0.00000000
Si      -0.26759583      -1.93965030       1.35688634       0.00000000
Si       2.27546865      -0.21848148      -0.69903151       0.00000000
Si      -2.14009875      -2.35911780      -1.65703174       0.00000000
Si       1.80405234      -1.82772171       2.54476080       0.00000000
Si      -0.60440787      -3.63224646      -0.35014070       0.00000000
Si       2.21187249      -1.90777077      -2.33603042       0.00000000
Si       0.41267457       3.77349705      -0.24153980       0.00000000
Si      -1.87422966       1.73918556      -2.81845035       0.00000000
