10
Lattice="16.28999089631971 0.0 0.0 0.0 16.28999089631971 0.0 0.0 0.0 34.71893929493243" Properties=species:S:1:pos:R:3:initial_magmoms:R:1 pbc="T T T"
Si       1.33766964       1.35513252      -1.37362088       0.00000000
Si      -1.31000922       1.45872063       1.29772524       0.00000000
Si      -1.37990961      -1.35923760      -1.37150303       0.00000000
Si       1.47123135      -1.34662914       1.38670993       0.00000000
Si      -2.26396791       0.22649616       2.97867834       0.00000000
Si       2.68749162       2.71886616       0.01867880       0.00000000
Si       2.70461241      -2.71686249      -0.02749742       0.00000000
Si       2.69420310      -0.00034209      -2.73283340       0.00000000
Si      -2.74517451      -2.69461035       0.00992962       0.00000000
Si      -0.02057427       2.71528236      -2.73092385       0.00000000
