10
Lattice="16.28999089631971 0.0 0.0 0.0 16.28999089631971 0.0 0.0 0.0 34.71893929493243" Properties=species:S:1:pos:R:3:initial_magmoms:R:1 pbc="T T T"
Si       0.95395869       1.23222447      -1.68095310       0.00000000
Si       1.63582551      -1.32844950       1.11874901       0.00000000
Si      -1.69116264      -1.48289499      -1.30637026       0.00000000
Si      -0.00262269       2.07448263       1.73247604       0.00000000
Si      -2.29944753       1.43075070       1.87367804       0.00000000
Si       0.02635722      -2.26924587       2.64329320       0.00000000
Si       1.66635297       3.06924777      -0.41280842       0.00000000
Si       2.26396791      -0.22649616      -2.97867834       0.00000000
Si      -2.03574501      -0.89085123       3.18570749       0.00000000
Si      -0.48770631       2.48360598      -3.00058601       0.00000000
