10
Lattice="16.28999089631971 0.0 0.0 0.0 16.28999089631971 0.0 0.0 0.0 34.71893929493243" Properties=species:S:1:pos:R:3:initial_magmoms:R:1 pbc="T T T"
Si      -1.26454383      -0.62913609       1.92547873       0.00000000
Si       2.29250799      -0.64075086      -0.42478646       0.00000000
Si      -1.18822518      -0.40856949      -2.06681961       0.00000000
Si       0.07934859       2.38841115      -0.38975503       0.00000000
Si      -1.61893278       2.09920338      -1.95686467       0.00000000
Si       0.20005749       0.12176775       3.56584537       0.00000000
Si       2.36356497       2.64855593      -0.88897894       0.00000000
Si       3.56666292      -0.01246185       1.48597143       0.00000000
Si      -3.54773394       0.12171888       1.95019863       0.00000000
Si      -3.48505002      -1.05230142      -1.92561761       0.00000000
