10
Lattice="16.28999089631971 0.0 0.0 0.0 16.28999089631971 0.0 0.0 0.0 34.71893929493243" Properties=species:S:1:pos:R:3:initial_magmoms:R:1 pbc="T T T"
Si      -0.35199432      -2.14172775      -0.75117939       0.00000000
Si      -0.02476080       1.73864866      -1.54683377       0.00000000
Si       1.66392576       0.76955589       1.45736301       0.00000000
Si      -2.43020736       0.30415059       2.16924054       0.00000000
Si      -1.80959094      -2.55733452       1.06507350       0.00000000
Si      -0.73678041       3.23150336       0.15696441       0.00000000
Si      -1.84428864      -1.37161800      -2.57618145       0.00000000
Si       1.91220165      -2.97948987      -1.01403663       0.00000000
Si      -1.46717514       0.92932302      -3.28552450       0.00000000
Si       2.25888543       1.95920549      -2.30877603       0.00000000
