10
Lattice="16.28999089631971 0.0 0.0 0.0 16.28999089631971 0.0 0.0 0.0 34.71893929493243" Properties=species:S:1:pos:R:3:initial_magmoms:R:1 pbc="T T T"
Si      -1.35796698       1.35759841      -1.35705994       0.00000000
Si       1.35793440      -1.35833622      -1.35674747       0.00000000
Si      -1.35679410      -1.35820590       1.35917780       0.00000000
Si       1.35816246       1.35933981       1.35723353       0.00000000
Si       2.71460519      -0.00170444      -2.71342550       0.00000000
Si      -0.00057015       2.71358452      -2.71533504       0.00000000
Si      -2.71518462       2.71475740       0.00010416       0.00000000
Si       2.71532985       2.71472482      -0.00055550       0.00000000
Si      -2.71546155      -2.71532580       0.00006944       0.00000000
Si      -0.00231318       2.71620721       2.71509201       0.00000000
