10
Lattice="16.28999089631971 0.0 0.0 0.0 16.28999089631971 0.0 0.0 0.0 34.71893929493243" Properties=species:S:1:pos:R:3:initial_magmoms:R:1 pbc="T T T"
Si      -0.56145114       1.52229724       1.64678965       0.00000000
Si      -1.33172379      -1.35017661      -1.35907364       0.00000000
Si       1.42561935       1.30459768      -1.34331123       0.00000000
Si      -0.09190818      -1.86164793       2.14090987       0.00000000
Si      -1.31338125      -0.14756785       3.13491366       0.00000000
Si       2.26433511      -1.69192242       2.22322852       0.00000000
Si       2.63467522       2.71759228       0.12929340       0.00000000
Si      -2.62158228      -0.04472257      -2.77362817       0.00000000
Si       0.08371431       2.65308388      -2.74630435       0.00000000
Si      -3.19619574      -2.20992813      -0.18821148       0.00000000
