10
Lattice="16.28999089631971 0.0 0.0 0.0 16.28999089631971 0.0 0.0 0.0 34.71893929493243" Properties=species:S:1:pos:R:3:initial_magmoms:R:1 pbc="T T T"
Si      -2.30617530       0.23839112       0.50050851       0.00000000
Si       0.74160225      -2.25453178      -0.17984421       0.00000000
Si       0.87602733       1.27815738      -1.81045482       0.00000000
Si       1.30923774       1.25738763       1.59596109       0.00000000
Si       2.63996296       1.92387669      -0.34441207       0.00000000
Si      -2.38503519      -1.43185420       2.18003814       0.00000000
Si       2.80833803      -2.22037165       0.97025602       0.00000000
Si       2.55272512      -0.48985985       2.69835747       0.00000000
Si      -0.99375516       2.58904626      -2.62940562       0.00000000
Si      -2.50939305       2.41293507       1.84545153       0.00000000
