10
Lattice="16.28999089631971 0.0 0.0 0.0 16.28999089631971 0.0 0.0 0.0 34.71893929493243" Properties=species:S:1:pos:R:3:initial_magmoms:R:1 pbc="T T T"
Si      -2.29074867      -0.45494712       0.26910665       0.00000000
Si       1.15999461       1.89371250       0.79246023       0.00000000
Si       0.98127702      -1.06890093       1.93971350       0.00000000
Si       1.67637132      -0.95122197      -2.52896367       0.00000000
Si      -0.30395511       0.21113469      -3.24837521       0.00000000
Si       1.44894663       1.05764454       2.96097167       0.00000000
Si       3.21158557       1.33934751      -0.35951482       0.00000000
Si       2.60314430      -2.30319423       0.73944438       0.00000000
Si       1.51537725      -3.19652154      -1.12812312       0.00000000
Si      -2.98712988      -1.54419426      -1.71060310       0.00000000
