10
Lattice="16.28999089631971 0.0 0.0 0.0 16.28999089631971 0.0 0.0 0.0 34.71893929493243" Properties=species:S:1:pos:R:3:initial_magmoms:R:1 pbc="T T T"
Si      -0.28895202       0.83606796      -2.16851144       0.00000000
Si      -2.09808684       0.57909321       0.95744472       0.00000000
Si       1.92380895       1.22049567       0.68444955       0.00000000
Si      -0.46766961      -2.12654547      -1.02125817       0.00000000
Si      -1.44894663      -1.05764454      -2.96097167       0.00000000
Si       0.98034264       3.45514158       0.32413620       0.00000000
Si      -2.68578117      -1.39704669       2.08706076       0.00000000
Si      -2.16536454      -3.01739670       0.45870688       0.00000000
Si       1.76263894       0.28170297      -3.32048649       0.00000000
Si      -2.03449068       2.26838250       2.59444363       0.00000000
