10
Lattice="16.28999089631971 0.0 0.0 0.0 16.28999089631971 0.0 0.0 0.0 34.71893929493243" Properties=species:S:1:pos:R:3:initial_magmoms:R:1 pbc="T T T"
Si      -0.47032488      -2.28926628      -0.07141690       0.00000000
Si       2.31690456       0.35236899       0.04346814       0.00000000
Si      -0.64531206       0.46894023       2.22364515       0.00000000
Si      -1.44560718       0.66209076      -1.77150015       0.00000000
Si      -1.26573300       2.71827972       1.97967502       0.00000000
Si       2.85561486      -0.62165898       2.15566543       0.00000000
Si      -0.92519055      -0.95825925      -3.39985403       0.00000000
Si      -2.86932060      -2.23692651       0.72948004       0.00000000
Si       2.54106148       2.68097562       0.59421498       0.00000000
Si      -0.34353981      -2.99033901      -2.33325290       0.00000000
