10
Lattice="16.28999089631971 0.0 0.0 0.0 16.28999089631971 0.0 0.0 0.0 34.71893929493243" Properties=species:S:1:pos:R:3:initial_magmoms:R:1 pbc="T T T"
Si       1.33612292       1.38228795      -1.33807908       0.00000000
Si       1.35563751      -1.35654975       1.35820566       0.00000000
Si      -1.35723393       1.35532800       1.35813623       0.00000000
Si      -1.36075257      -1.36327752      -1.35966039       0.00000000
Si       2.65293143       0.01765836      -2.64784833       0.00000000
Si       2.71424373      -2.71078632      -0.00263864       0.00000000
Si      -2.71507059      -2.71344159      -0.00041663       0.00000000
Si       2.71057522       2.71888245       0.00298583       0.00000000
Si      -0.00058644      -2.71441899       2.71519616       0.00000000
Si       2.71466401       0.00045612       2.71509201       0.00000000
