10
Lattice="16.28999089631971 0.0 0.0 0.0 16.28999089631971 0.0 0.0 0.0 34.71893929493243" Properties=species:S:1:pos:R:3:initial_magmoms:R:1 pbc="T T T"
Si      -1.35431802      -1.35016407       1.35924376       0.00000000
Si       1.36075257       1.36327752       1.35966039       0.00000000
Si      -1.24185186       1.34952876      -1.49843554       0.00000000
Si       1.22277627      -1.39716072      -1.48385010       0.00000000
Si       2.06208594       0.64809765      -2.42622784       0.00000000
Si       0.45224298       2.39917491      -2.72389469       0.00000000
Si      -2.30769027      -0.32835753      -2.82159384       0.00000000
Si      -0.67759884      -2.31405966      -2.81169894       0.00000000
Si       0.00340461      -2.70842427       2.71776190       0.00000000
Si      -2.71063971       2.71552671      -0.03831584       0.00000000
