10
Lattice="16.28999089631971 0.0 0.0 0.0 16.28999089631971 0.0 0.0 0.0 34.71893929493243" Properties=species:S:1:pos:R:3:initial_magmoms:R:1 pbc="T T T"
Si       2.23438527      -0.37554966       0.57713325       0.00000000
Si       0.01886382      -0.67266297      -2.24555281       0.00000000
Si      -0.79633176       2.20493295       0.12866846       0.00000000
Si      -1.40477304      -1.43760879       1.22762766       0.00000000
Si      -2.33154602      -0.08563653      -2.04078039       0.00000000
Si      -2.49254009      -2.33093610      -0.63993985       0.00000000
Si       1.18475541       3.26454858       0.76027576       0.00000000
Si       2.13842088       0.26756325       2.86160601       0.00000000
Si       2.61786816      -2.53387692      -0.36534760       0.00000000
Si      -1.00223736       2.83748994      -2.18760687       0.00000000
