10
Lattice="16.28999089631971 0.0 0.0 0.0 16.28999089631971 0.0 0.0 0.0 34.71893929493243" Properties=species:S:1:pos:R:3:initial_magmoms:R:1 pbc="T T T"
Si      -1.23338106       1.37023335       1.41420734       0.00000000
Si       1.34597754       1.35936792      -1.35022030       0.00000000
Si      -1.36783872      -1.35749457      -1.35063693       0.00000000
Si       1.27373139      -1.24432794       1.55197217       0.00000000
Si      -0.62016030      -1.86926121       2.86854981       0.00000000
Si      -2.43853155      -0.17684424       2.71109933       0.00000000
Si       2.27852695       0.51974874       2.94784791       0.00000000
Si       2.70376437       0.00407250      -2.70467632       0.00000000
Si      -0.01101204      -2.71174743      -2.70530126       0.00000000
Si       2.70357378      -2.71358820       0.05419629       0.00000000
