10
Lattice="16.28999089631971 0.0 0.0 0.0 16.28999089631971 0.0 0.0 0.0 34.71893929493243" Properties=species:S:1:pos:R:3:initial_magmoms:R:1 pbc="T T T"
Si      -1.24820496       0.45040221      -1.97894593       0.00000000
Si       2.08717321      -1.19614212      -0.12061366       0.00000000
Si      -1.71962127      -1.15883802       1.26484638       0.00000000
Si       0.87467526       2.11111884       0.83745600       0.00000000
Si       3.06150092      -0.75546504       2.04095399       0.00000000
Si      -3.52367361       0.66888369      -1.27991441       0.00000000
Si      -1.09920033      -3.40817751       1.50881651       0.00000000
Si       3.04043795       1.68490728       1.82909890       0.00000000
Si      -0.45388827      -3.87711774      -0.71482864       0.00000000
Si      -2.19582684      -0.19181475       3.31757010       0.00000000
