10
Lattice="16.28999089631971 0.0 0.0 0.0 16.28999089631971 0.0 0.0 0.0 34.71893929493243" Properties=species:S:1:pos:R:3:initial_magmoms:R:1 pbc="T T T"
Si      -0.92106918      -2.17779381       0.01527634       0.00000000
Si      -1.03592997       1.14663681      -1.84562513       0.00000000
Si       2.17975580       0.89127477      -0.68431068       0.00000000
Si      -0.33723558      -0.11352501       2.43236203       0.00000000
Si      -1.94707854       1.63755225       2.13469518       0.00000000
Si       2.20749767      -0.46126764      -2.64322376       0.00000000
Si       0.04173498      -0.03505608      -3.63486666       0.00000000
Si       0.96854217      -3.71157876      -0.40357318       0.00000000
Si       1.61436248       0.61931322       3.57040193       0.00000000
Si      -3.02876712      -2.33798967      -1.15475257       0.00000000
