10
Lattice="16.28999089631971 0.0 0.0 0.0 16.28999089631971 0.0 0.0 0.0 34.71893929493243" Properties=species:S:1:pos:R:3:initial_magmoms:R:1 pbc="T T T"
Si       2.06673578       0.03416013       1.15010023       0.00000000
Si      -0.74160225       2.25453178       0.17984421       0.00000000
Si       0.14245605      -1.09077840      -2.13174406       0.00000000
Si      -1.01413395      -1.98721710       0.96338167       0.00000000
Si       0.06353100      -3.16890999      -0.82585987       0.00000000
Si      -3.18267504      -1.17920052       1.12722043       0.00000000
Si       2.20155182      -2.24257914       2.12469612       0.00000000
Si       1.81112287       1.76467194       2.87820168       0.00000000
Si       0.13442508       3.53268917      -1.63061061       0.00000000
Si       0.56763549       3.51191942       1.77580530       0.00000000
