10
Lattice="16.28999089631971 0.0 0.0 0.0 16.28999089631971 0.0 0.0 0.0 34.71893929493243" Properties=species:S:1:pos:R:3:initial_magmoms:R:1 pbc="T T T"
Si      -1.34976008      -1.34688978       1.36127135       0.00000000
Si       1.23559650      -1.35397593      -1.47338928       0.00000000
Si      -1.41107238       1.38155490      -1.28393834       0.00000000
Si       1.36516716       1.36544409       1.36224348       0.00000000
Si       2.30474178       0.30476961      -2.85195904       0.00000000
Si       2.70216891      -2.70154989      -0.00991921       0.00000000
Si      -2.70836630       0.00734679       2.72211565       0.00000000
Si       0.00923643      -2.71000440       2.72215037       0.00000000
Si      -2.71392119      -2.71819827      -0.03191019       0.00000000
Si       2.72204271       0.00667890       2.72124768       0.00000000
