10
Lattice="16.28999089631971 0.0 0.0 0.0 16.28999089631971 0.0 0.0 0.0 34.71893929493243" Properties=species:S:1:pos:R:3:initial_magmoms:R:1 pbc="T T T"
Si       1.35117405      -1.35221661      -1.35761544       0.00000000
Si      -1.35852573      -1.35532800       1.35733769       0.00000000
Si       1.35643572       1.35900954       1.35650444       0.00000000
Si      -1.35899651       1.36311462      -1.36087902       0.00000000
Si       2.69293248       0.00845451      -2.73206958       0.00000000
Si       2.71265967      -2.71357191      -0.00236089       0.00000000
Si      -0.00117288      -2.71336014       2.71415460       0.00000000
Si       2.71409319       0.00127062       2.71484898       0.00000000
Si       2.71280628       2.71668330      -0.00090269       0.00000000
Si      -2.71670678      -2.71292031      -0.00072910       0.00000000
