10
Lattice="16.28999089631971 0.0 0.0 0.0 16.28999089631971 0.0 0.0 0.0 34.71893929493243" Properties=species:S:1:pos:R:3:initial_magmoms:R:1 pbc="T T T"
Si       0.77075646       0.75545757      -2.11089749       0.00000000
Si       0.70625132       1.84009464       1.33820681       0.00000000
Si       1.59658453      -1.78323372       0.25262587       0.00000000
Si      -1.97994103      -0.79099353       1.19485918       0.00000000
Si       2.02282867       0.54594306       2.72495146       0.00000000
Si       2.64549763       1.97887077      -1.13269083       0.00000000
Si      -0.72101641      -2.15912547       2.70007880       0.00000000
Si       3.29928049      -0.85393809       1.45266481       0.00000000
Si       0.59579209      -3.52375506       1.39030956       0.00000000
Si      -2.96564893      -2.50551603      -0.04539720       0.00000000
