10
Lattice="16.28999089631971 0.0 0.0 0.0 16.28999089631971 0.0 0.0 0.0 34.71893929493243" Properties=species:S:1:pos:R:3:initial_magmoms:R:1 pbc="T T T"
Si       1.69930764       0.86744250      -1.43035166       0.00000000
Si      -1.02340296      -1.79476704      -1.33758260       0.00000000
Si       0.56013165      -0.80327619       2.27999402       0.00000000
Si      -1.72286298       1.96110423       0.05614056       0.00000000
Si       0.40821111       2.24608149      -2.84754484       0.00000000
Si      -2.30814476      -0.47136744      -2.83886510       0.00000000
Si       2.87756334       2.49548139      -0.00885333       0.00000000
Si      -2.73060636      -2.67473655       0.08419347       0.00000000
Si      -1.56023991      -1.90312812       2.94770903       0.00000000
Si      -3.55317252       0.94516209      -1.36855191       0.00000000
