10
Lattice="16.28999089631971 0.0 0.0 0.0 16.28999089631971 0.0 0.0 0.0 34.71893929493243" Properties=species:S:1:pos:R:3:initial_magmoms:R:1 pbc="T T T"
Si       1.24502776      -1.41652953      -1.47031318       0.00000000
Si      -1.47308159       1.29608127      -1.44892630       0.00000000
Si      -0.86561120      -1.75423752       1.45823098       0.00000000
Si       1.83030954       1.01594214       1.42469247       0.00000000
Si       2.52976956      -2.73992913       0.03096931       0.00000000
Si       2.60467098      -0.06550209      -2.84261474       0.00000000
Si      -2.68934186      -2.76941403      -0.08089517       0.00000000
Si      -0.10780040       2.64812288      -2.83598342       0.00000000
Si       2.77356570       2.75820946       0.01360983       0.00000000
Si       3.55317252      -0.94516209       1.36855191       0.00000000
