10
Lattice="16.28999089631971 0.0 0.0 0.0 16.28999089631971 0.0 0.0 0.0 34.71893929493243" Properties=species:S:1:pos:R:3:initial_magmoms:R:1 pbc="T T T"
Si      -0.96991474      -1.82762397      -1.08805745       0.00000000
Si      -0.45595058       1.93170078      -1.26022876       0.00000000
Si      -0.77068316      -0.19784205       2.23767161       0.00000000
Si       2.34327252      -0.20380419       0.41874536       0.00000000
Si       0.83463933      -3.30755418      -0.45367263       0.00000000
Si       0.67201626       0.55667817      -3.34524111       0.00000000
Si      -2.83056899       0.81503757       2.02640674       0.00000000
Si      -2.81219387       1.76197527      -1.34254741       0.00000000
Si      -0.34945308       3.52193125       0.69628872       0.00000000
Si       3.28095750       1.91203875      -0.01166557       0.00000000
