10
Lattice="16.290000149 0.0 0.0 0.0 16.290000149 0.0 0.0 0.0 29.1751946751" Properties=species:S:1:pos:R:3:initial_magmoms:R:1 pbc="T T T"
Si       1.61279146      -0.16969293      -1.67897410       0.00000000
Si      -0.42885054       2.28997655      -0.30479326       0.00000000
Si       0.24255810      -0.51236937       2.30016564       0.00000000
Si      -1.89732890      -1.30072393      -0.63313090       0.00000000
H        1.32369283      -2.22267278       1.50987467       0.00000000
H       -2.78058900      -0.45612000      -1.52880938       0.00000000
Si      -1.50280138       1.03089637       2.75206402       0.00000000
Si       0.05198139      -0.95110795      -3.27217313       0.00000000
Si      -2.32591880       2.27274661       1.03151818       0.00000000
Si      -0.86394016      -2.78707242      -2.10329813       0.00000000
