10
Lattice="16.290000149 0.0 0.0 0.0 16.290000149 0.0 0.0 0.0 29.1751946751" Properties=species:S:1:pos:R:3:initial_magmoms:R:1 pbc="T T T"
Si      -0.68579272       2.05053961       0.76310639       0.00000000
Si       2.05596092      -0.61043518       0.89351951       0.00000000
Si      -1.24509358      -1.78399611       0.84538044       0.00000000
Si      -0.64207036      -0.67786763      -2.14414341       0.00000000
Si      -0.68488048      -2.82219040      -1.16254398       0.00000000
H        0.68075911       2.30818225      -2.13343611       0.00000000
Si      -1.29406132       1.53103521       2.94476910       0.00000000
Si      -3.53349651       0.78848814      -0.76514866       0.00000000
Si       1.53547912      -1.86700995       2.82342946       0.00000000
Si       1.07963605       3.53434685       0.43120938       0.00000000
