10
Lattice="16.290000149 0.0 0.0 0.0 16.290000149 0.0 0.0 0.0 29.1751946751" Properties=species:S:1:pos:R:3:initial_magmoms:R:1 pbc="T T T"
Si      -1.33962445      -1.32524038       1.40143923       0.00000000
Si       1.36221868       1.35765748       1.35388366       0.00000000
Si      -1.35821134       1.34750881      -1.37384533       0.00000000
Si       1.42527727      -1.35125551      -1.31021423       0.00000000
Si      -2.67209759      -2.66274713       0.02086318       0.00000000
Si      -2.52209927      -0.12186549      -2.82467525       0.00000000
Si       2.72979677       2.70065396      -0.00386280       0.00000000
Si      -0.00009774       2.72995967       2.70370322       0.00000000
Si       0.01686015      -2.69790095       2.74656158       0.00000000
Si      -2.71894763       0.03357369       2.73139048       0.00000000
