10
Lattice="16.290000149 0.0 0.0 0.0 16.290000149 0.0 0.0 0.0 29.1751946751" Properties=species:S:1:pos:R:3:initial_magmoms:R:1 pbc="T T T"
Si      -1.39360951       1.43050636      -1.22474550       0.00000000
Si      -1.33112107      -1.38688174       1.36912187       0.00000000
Si       1.20381472      -1.47036799      -1.42879681       0.00000000
Si       1.30999294       1.44555832       1.37001754       0.00000000
H        3.22462182       1.73472212      -0.51062426       0.00000000
Si       0.00360009       2.65667096      -2.65362983       0.00000000
Si       2.67281435      -2.68209965       0.02698705       0.00000000
Si       2.53723268      -0.14046867      -2.82713471       0.00000000
Si      -2.89598736       0.15089427      -2.51615631       0.00000000
Si       2.73496071       0.07723089       2.70560252       0.00000000
