10
Lattice="16.290000149 0.0 0.0 0.0 16.290000149 0.0 0.0 0.0 29.1751946751" Properties=species:S:1:pos:R:3:initial_magmoms:R:1 pbc="T T T"
H       -0.75149029      -0.58331233       1.42655032       0.00000000
Si      -1.68160043       1.68029723       0.14158722       0.00000000
Si      -0.01295055      -2.30588210      -0.64491768       0.00000000
Si       1.93595249       0.91913068      -1.27586044       0.00000000
Si       0.50274198      -0.30058308       2.44042043       0.00000000
H       -0.84950722       0.18091674      -2.47090559       0.00000000
Si       2.18427725      -2.67366143       0.16113460       0.00000000
Si      -0.28540080       3.40026060      -0.78282882       0.00000000
Si       2.11960595      -2.04439502       2.40287487       0.00000000
Si      -3.73168065       0.63794899      -0.56203095       0.00000000
