10
Lattice="16.290000149 0.0 0.0 0.0 16.290000149 0.0 0.0 0.0 29.1751946751" Properties=species:S:1:pos:R:3:initial_magmoms:R:1 pbc="T T T"
Si       1.38061009       1.31887099      -1.36186891       0.00000000
Si       1.35690814      -1.36761067       1.34048349       0.00000000
Si      -1.37269315      -1.32711373      -1.36595344       0.00000000
Si      -1.36720342       1.37924173       1.32537074       0.00000000
Si      -0.05229090       2.63735102      -2.64598593       0.00000000
Si       0.03679911      -2.66334986      -2.67516113       0.00000000
Si       2.72767907      -0.00666261       2.66877176       0.00000000
Si      -2.72740214       0.01883124       2.67098907       0.00000000
Si      -0.01282023       2.73421137       2.68516822       0.00000000
Si      -2.72266175      -2.69855255      -0.01295379       0.00000000
