10
Lattice="16.290000149 0.0 0.0 0.0 16.290000149 0.0 0.0 0.0 29.1751946751" Properties=species:S:1:pos:R:3:initial_magmoms:R:1 pbc="T T T"
Si      -1.34403904       1.35395965       1.34393346       0.00000000
Si       1.39360951      -1.43050636       1.22474550       0.00000000
Si       1.39720960       1.22616460      -1.42888433       0.00000000
Si      -1.50237784      -1.27961209      -1.29141082       0.00000000
H        0.51394950       2.07076853      -2.32456281       0.00000000
Si       2.70360245       0.01505196       2.59476304       0.00000000
Si      -2.55801872       2.77120596      -0.10672286       0.00000000
Si      -2.66466935      -0.04973337       2.68770062       0.00000000
Si       2.43059834      -0.26018388      -2.89905157       0.00000000
Si       0.06248844      -2.81738811       2.59386736       0.00000000
