10
Lattice="16.290000149 0.0 0.0 0.0 16.290000149 0.0 0.0 0.0 29.1751946751" Properties=species:S:1:pos:R:3:initial_magmoms:R:1 pbc="T T T"
Si       1.74807992       0.32458640      -1.49009389       0.00000000
Si      -1.91863622       1.06234096      -0.77390121       0.00000000
Si       0.64207036       0.67786763       2.14414341       0.00000000
Si      -0.04281012      -2.14432277       0.98159942       0.00000000
Si       1.86401585      -1.98070601      -1.72404978       0.00000000
Si      -0.60302323      -1.10612848       2.98952385       0.00000000
H        1.32282946       2.98604988       0.01070730       0.00000000
Si      -0.75782710       2.50209027      -2.27797002       0.00000000
Si      -2.89142616       1.46635577       1.37899475       0.00000000
Si       2.15273981      -2.86605122       0.51669270       0.00000000
