10
Lattice="16.290000149 0.0 0.0 0.0 16.290000149 0.0 0.0 0.0 29.1751946751" Properties=species:S:1:pos:R:3:initial_magmoms:R:1 pbc="T T T"
Si       1.37287234      -1.34581465      -1.33657402       0.00000000
Si       1.37885077       1.33529131       1.34395534       0.00000000
Si      -1.34965909      -1.36511830       1.35658820       0.00000000
Si      -1.34586352       1.35951454      -1.36907519       0.00000000
Si      -0.01283652      -2.69322572      -2.66150713       0.00000000
Si       0.00083079       2.70089831       2.65643065       0.00000000
Si      -2.72057663      -0.00809613       2.68899017       0.00000000
Si       2.73557972       0.01246185      -2.68262998       0.00000000
Si      -2.69404022       0.00247608      -2.72893101       0.00000000
Si       2.73370638       2.69045642      -0.01563790       0.00000000
