10
Lattice="16.290000149 0.0 0.0 0.0 16.290000149 0.0 0.0 0.0 29.1751946751" Properties=species:S:1:pos:R:3:initial_magmoms:R:1 pbc="T T T"
Si       1.44785521      -1.19045692      -1.35715391       0.00000000
Si      -1.34801543      -1.45880209       1.23469453       0.00000000
Si      -1.35085967       1.24686919      -1.45786668       0.00000000
Si       1.42659676       1.35830908       1.27874032       0.00000000
Si      -2.70842429      -0.00390960       2.52384719       0.00000000
Si       0.09109368      -2.53680914      -2.69956297       0.00000000
Si      -2.52601930       2.83166971      -0.16852730       0.00000000
Si       0.09589923       2.66822057       2.70265029       0.00000000
Si       0.03660363      -2.79593418       2.60809931       0.00000000
Si       2.75708253      -0.03658734       2.64951642       0.00000000
