10
Lattice="16.290000149 0.0 0.0 0.0 16.290000149 0.0 0.0 0.0 29.1751946751" Properties=species:S:1:pos:R:3:initial_magmoms:R:1 pbc="T T T"
Si       1.37749870       1.34011315       1.33199351       0.00000000
Si       1.37801998      -1.36560700      -1.31247531       0.00000000
Si      -1.35340579      -1.35153244       1.36172304       0.00000000
Si      -1.35143470       1.37600002      -1.34156298       0.00000000
Si      -0.05651001       2.66217698       2.61398074       0.00000000
Si      -0.00083079      -2.70089831      -2.65643065       0.00000000
Si       2.73287559      -0.01044189      -2.67206855       0.00000000
Si      -2.71682993       0.02171457      -2.68890264       0.00000000
Si       0.00992061      -2.67721265       2.74238077       0.00000000
Si       2.72565911       2.69791724      -0.02199810       0.00000000
