10
Lattice="16.290000149 0.0 0.0 0.0 16.290000149 0.0 0.0 0.0 29.1751946751" Properties=species:S:1:pos:R:3:initial_magmoms:R:1 pbc="T T T"
Si       1.54015435      -1.26843715      -1.19886710       0.00000000
Si       1.39567834       1.32040225       1.36590092       0.00000000
Si      -1.21974634      -1.43643592       1.43999425       0.00000000
Si      -1.46899963       1.21173166      -1.45578386       0.00000000
H        0.35139159      -1.79665670      -2.25366709       0.00000000
Si      -2.67281435       2.68209965      -0.02698705       0.00000000
Si       2.85211659       2.50260014      -0.05114412       0.00000000
Si      -2.65595420      -0.06638175       2.72187936       0.00000000
Si      -0.13558167       2.54163098      -2.85412177       0.00000000
Si       0.06214635       2.75933055       2.67861547       0.00000000
