10
Lattice="16.290000149 0.0 0.0 0.0 16.290000149 0.0 0.0 0.0 29.1751946751" Properties=species:S:1:pos:R:3:initial_magmoms:R:1 pbc="T T T"
Si      -1.33069753       1.30991149       1.42390996       0.00000000
Si      -1.42659676      -1.35830908      -1.27874032       0.00000000
Si       1.33048576      -1.39489642       1.37077610       0.00000000
Si       1.33020883       1.36753525      -1.41126543       0.00000000
Si       0.02125845      -2.54876600      -2.63589423       0.00000000
Si       2.62433531       2.62834103       0.10933112       0.00000000
Si      -2.60657596       2.68603695       0.03643982       0.00000000
Si      -2.74311711      -0.07851780       2.68067232       0.00000000
Si       2.66721059      -0.07641639       2.78173519       0.00000000
Si       2.71476110      -2.74864431       0.04576713       0.00000000
