10
Lattice="16.290000149 0.0 0.0 0.0 16.290000149 0.0 0.0 0.0 29.1751946751" Properties=species:S:1:pos:R:3:initial_magmoms:R:1 pbc="T T T"
Si       1.39336516       1.44039439      -1.17074221       0.00000000
Si       1.69937282      -1.59705532       0.02278583       0.00000000
Si      -0.97047676       1.27523008       1.74199252       0.00000000
Si      -1.55629774      -0.79837291      -1.59909242       0.00000000
Si      -2.06462720       1.23272947      -2.62821824       0.00000000
Si      -0.16811280       2.72807003      -2.29600030       0.00000000
Si       0.63301312      -3.35523504      -1.04721444       0.00000000
Si      -2.41438979       2.70313004       0.53580245       0.00000000
Si      -0.27508923      -2.31865346      -2.89560890       0.00000000
Si       2.34787772      -2.02396736       2.15461147       0.00000000
