10
Lattice="16.290000149 0.0 0.0 0.0 16.290000149 0.0 0.0 0.0 29.1751946751" Properties=species:S:1:pos:R:3:initial_magmoms:R:1 pbc="T T T"
Si       1.42747642      -1.35971002      -1.26865417       0.00000000
Si       1.35578413       1.34881201       1.35699665       0.00000000
Si      -1.32638068      -1.38696319       1.38170804       0.00000000
Si      -1.34223085       1.33369489      -1.42229074       0.00000000
Si       0.03621267      -2.70451469      -2.54366852       0.00000000
Si      -2.68478750       2.61404003       0.04067022       0.00000000
Si       2.69680952       2.70218522      -0.02780396       0.00000000
Si       2.70058880      -0.03012021       2.71472269       0.00000000
Si       0.01347183       2.68058468       2.74436469       0.00000000
Si      -2.70848945      -0.07244163       2.74302263       0.00000000
