10
Lattice="16.290000149 0.0 0.0 0.0 16.290000149 0.0 0.0 0.0 29.1751946751" Properties=species:S:1:pos:R:3:initial_magmoms:R:1 pbc="T T T"
Si      -1.31196403       0.45937800      -0.60693157       0.00000000
H        0.57119257      -0.12419496      -2.33068960       0.00000000
Si       1.75679507      -0.63568468      -1.53076411       0.00000000
Si       1.06668550      -2.49797378      -0.11153677       0.00000000
Si      -2.57083895       0.70763761       1.33012630       0.00000000
Si      -2.28351593      -1.53707554      -1.48312102       0.00000000
Si       0.43649055      -2.16280703       2.21606026       0.00000000
Si      -1.34117200      -0.61291126       2.84300602       0.00000000
Si       3.05430987       1.03752640      -0.35535387       0.00000000
Si      -1.04400982       2.48950298      -1.80288115       0.00000000
