10
Lattice="16.290000149 0.0 0.0 0.0 16.290000149 0.0 0.0 0.0 29.1751946751" Properties=species:S:1:pos:R:3:initial_magmoms:R:1 pbc="T T T"
Si      -2.06883002       0.72583679      -0.84292972       0.00000000
Si      -0.78465673      -1.48824953       1.71909000       0.00000000
Si       1.05088420      -0.67122457      -2.06767522       0.00000000
Si       0.93250477       2.07836456       0.80158847       0.00000000
H       -1.36985869       2.25977000       1.70657384       0.00000000
Si      -1.31212693       1.31177995      -2.99404600       0.00000000
Si      -2.66276342       2.24812265       0.91160813       0.00000000
H        0.39125322      -3.57400486      -0.53058009       0.00000000
Si      -2.32375223      -2.80312947       0.52877123       0.00000000
Si      -3.35417945      -1.26056419      -0.95537092       0.00000000
