10
Lattice="16.290000149 0.0 0.0 0.0 16.290000149 0.0 0.0 0.0 29.1751946751" Properties=species:S:1:pos:R:3:initial_magmoms:R:1 pbc="T T T"
Si       1.26998780      -1.36159966      -1.42331187       0.00000000
Si       1.35922279       1.40960629       1.31396324       0.00000000
Si      -1.39245309       1.35483931      -1.35084069       0.00000000
Si      -1.29363794      -1.35922132       1.44563090       0.00000000
Si       2.61822640      -2.69640227      -0.04740969       0.00000000
Si      -0.07561834       2.65452068       2.68239657       0.00000000
Si      -2.72155420      -2.62969472       0.03997002       0.00000000
Si       2.61092848       0.00715131      -2.78661037       0.00000000
Si      -0.03813505       2.70228296      -2.74465644       0.00000000
Si      -0.10958299      -2.72315045      -2.75691002       0.00000000
