10
Lattice="16.290000149 0.0 0.0 0.0 16.290000149 0.0 0.0 0.0 29.1751946751" Properties=species:S:1:pos:R:3:initial_magmoms:R:1 pbc="T T T"
Si      -1.37287234       1.34581465       1.33657402       0.00000000
Si      -1.38570886      -1.34741107      -1.32493312       0.00000000
Si       1.36148563      -1.36677988       1.33496938       0.00000000
Si       1.36270738       1.35827650      -1.34605596       0.00000000
Si       0.00597843       2.68110596       2.68052936       0.00000000
Si      -0.05778063      -2.76588238      -2.61631476       0.00000000
Si      -0.00346977      -2.71437666       2.68414709       0.00000000
Si       2.69394248      -0.00021177      -2.70862507       0.00000000
Si      -2.72253143      -0.01930365       2.69316222       0.00000000
Si       2.71955036      -0.02239875       2.69864716       0.00000000
