10
Lattice="16.290000149 0.0 0.0 0.0 16.290000149 0.0 0.0 0.0 29.1751946751" Properties=species:S:1:pos:R:3:initial_magmoms:R:1 pbc="T T T"
Si      -1.88928164      -1.33779997      -0.38657133       0.00000000
Si       0.52048179       1.25657477      -1.92990995       0.00000000
Si       1.93183112      -1.48963906       0.32215250       0.00000000
H       -0.90073927      -0.99465112       2.06551626       0.00000000
Si      -1.60842574       1.53022071       1.07609788       0.00000000
H       -2.79849171      -1.40983435       0.82933408       0.00000000
Si       0.19841220       2.86008420       1.68600533       0.00000000
Si      -2.78057271       0.08301384      -1.97804902       0.00000000
Si      -0.01747917      -1.83925505       2.96119473       0.00000000
Si       1.55128042      -0.36704628      -3.24469010       0.00000000
