10
Lattice="16.290000149 0.0 0.0 0.0 16.290000149 0.0 0.0 0.0 29.1751946751" Properties=species:S:1:pos:R:3:initial_magmoms:R:1 pbc="T T T"
Si       1.36067113      -1.35238115       1.35288295       0.00000000
Si      -1.36041049       1.36293381       1.34731049       0.00000000
Si       1.34773687       1.38896523      -1.33543619       0.00000000
Si      -1.34741107      -1.38510776      -1.34138793       0.00000000
Si      -2.77967676      -0.03616869      -2.60397365       0.00000000
Si       2.79060735       0.05672830      -2.61710249       0.00000000
Si       0.00133578      -2.71639173       2.69479603       0.00000000
Si      -0.00234576       2.70731495       2.71098826       0.00000000
Si      -2.72536589       0.01533704       2.69648819       0.00000000
Si       2.71094924      -2.71350840      -0.00700205       0.00000000
