10
Lattice="16.290000149 0.0 0.0 0.0 16.290000149 0.0 0.0 0.0 29.1751946751" Properties=species:S:1:pos:R:3:initial_magmoms:R:1 pbc="T T T"
Si      -1.67718584       1.67998772       0.24819338       0.00000000
Si       0.35940627      -0.23612355       2.36211129       0.00000000
Si       1.63698212       1.05871969      -1.43244371       0.00000000
Si      -1.07082316      -1.68920786      -1.38631773       0.00000000
H        1.88813156      -1.63660744       0.26531922       0.00000000
H        0.53903610       2.46492137       1.37447260       0.00000000
H       -1.08297550       0.05289363       2.80125632       0.00000000
Si      -2.41448753      -0.27598518      -2.75761023       0.00000000
Si       0.34516881       2.47208897      -2.79186190       0.00000000
Si      -3.53962155       0.84110158      -1.00628164       0.00000000
