10
Lattice="16.290000149 0.0 0.0 0.0 16.290000149 0.0 0.0 0.0 29.1751946751" Properties=species:S:1:pos:R:3:initial_magmoms:R:1 pbc="T T T"
Si      -1.35962857       1.35233065       1.35192017       0.00000000
Si      -1.35806473      -1.34438113      -1.36367777       0.00000000
Si       1.32514264      -1.36407574       1.39171514       0.00000000
Si       1.35097858       1.37935576      -1.35772603       0.00000000
Si       0.01554066       2.71568963       2.68315513       0.00000000
Si       2.69433344      -2.70546603       0.02669530       0.00000000
Si       2.69909012       0.01936881       2.70080612       0.00000000
Si      -2.72302013      -2.69197791      -0.01450007       0.00000000
Si      -2.71357193       2.70350471      -0.01811780       0.00000000
Si       0.00234576      -2.70731495      -2.71098826       0.00000000
