10
Lattice="16.290000149 0.0 0.0 0.0 16.290000149 0.0 0.0 0.0 29.1751946751" Properties=species:S:1:pos:R:3:initial_magmoms:R:1 pbc="T T T"
Si       1.31139258       1.33770614      -1.36534076       0.00000000
Si      -1.27635409      -1.46308636      -1.29745008       0.00000000
Si      -1.30051216       1.41471223       1.33803278       0.00000000
Si       1.23165433      -1.49136580       1.36058520       0.00000000
H       -1.92265985      -2.28951065      -0.22065200       0.00000000
Si      -2.59074533      -0.02614545       2.61628558       0.00000000
Si       2.54282504       2.69943873       0.07961911       0.00000000
Si      -0.15811074       2.62978921      -2.63761265       0.00000000
Si       2.68934870      -0.05893722      -2.66322847       0.00000000
Si       2.57252334      -2.79464727      -0.06132626       0.00000000
