10
Lattice="16.290000149 0.0 0.0 0.0 16.290000149 0.0 0.0 0.0 29.1751946751" Properties=species:S:1:pos:R:3:initial_magmoms:R:1 pbc="T T T"
Si      -1.32099521       1.40874292      -1.32087776       0.00000000
Si       1.33980527       1.37665162       1.34100865       0.00000000
Si       1.34674644      -1.33050205      -1.40137213       0.00000000
Si      -1.38294608      -1.33330393       1.36475726       0.00000000
Si      -2.71225896       0.06393825      -2.59589212       0.00000000
Si       2.65040909      -2.68180643       0.02363191       0.00000000
Si       2.68564436       0.01878237       2.70226488       0.00000000
Si      -0.04788283       2.73833274       2.66249909       0.00000000
Si       2.66948468       2.73950562      -0.03766518       0.00000000
Si      -2.74816212      -2.68100822       0.02208562       0.00000000
