10
Lattice="16.290000149 0.0 0.0 0.0 16.290000149 0.0 0.0 0.0 29.1751946751" Properties=species:S:1:pos:R:3:initial_magmoms:R:1 pbc="T T T"
H       -0.61406785       1.30602796      -0.43806555       0.00000000
Si      -0.84857869      -1.66187975      -1.39439925       0.00000000
Si       2.30752739       0.08701466      -0.35713356       0.00000000
Si      -0.75670309      -0.58594316       2.15111628       0.00000000
H        1.40121694       1.64917681      -1.85455042       0.00000000
Si       2.36301113      -1.98300452       0.92637078       0.00000000
Si      -2.22864632      -0.20994552      -2.54991201       0.00000000
Si      -2.12229217       2.77681949       0.20037524       0.00000000
Si       1.31212693      -1.31177995       2.99404600       0.00000000
Si       0.49384764       2.55159395      -2.65829786       0.00000000
