10
Lattice="16.290000149 0.0 0.0 0.0 16.290000149 0.0 0.0 0.0 29.1751946751" Properties=species:S:1:pos:R:3:initial_magmoms:R:1 pbc="T T T"
Si      -0.98082091       1.86036689      -0.89054364       0.00000000
Si      -1.76542877      -1.48380724       0.33189701       0.00000000
Si       0.39638457       0.64464418       2.21918201       0.00000000
Si       1.75671362      -0.97026499      -1.25695491       0.00000000
H       -0.39887694      -1.22616460      -2.56464549       0.00000000
Si       1.87778090      -1.22292289       2.58145040       0.00000000
Si       2.49256550      -2.29526102       0.53364349       0.00000000
Si      -2.47032965       0.84691711      -2.35758913       0.00000000
Si      -1.07963605      -3.53434685      -0.43120938       0.00000000
Si      -3.58974588      -0.59412889      -0.80628568       0.00000000
