10
Lattice="16.290000149 0.0 0.0 0.0 16.290000149 0.0 0.0 0.0 29.1751946751" Properties=species:S:1:pos:R:3:initial_magmoms:R:1 pbc="T T T"
H       -1.04891311       1.11123051       0.01715501       0.00000000
Si      -0.83530234      -1.92955866       1.01859357       0.00000000
Si       0.27598518      -0.73820579      -2.20768698       0.00000000
Si       1.86939806       0.90512942       1.11878119       0.00000000
Si       2.54350108      -1.22519535      -2.08952744       0.00000000
Si      -2.39611241      -2.71097368      -0.57460546       0.00000000
Si       0.94240909       1.71586644       3.11821563       0.00000000
H        0.18709065       3.27946210      -1.70362714       0.00000000
Si      -2.87694435       0.53011081       2.39277442       0.00000000
Si       0.93208123      -3.08590432       2.05017010       0.00000000
