10
Lattice="16.290000149 0.0 0.0 0.0 16.290000149 0.0 0.0 0.0 29.1751946751" Properties=species:S:1:pos:R:3:initial_magmoms:R:1 pbc="T T T"
Si      -1.36764325      -1.31724688       1.32828826       0.00000000
Si      -1.23544990       1.39815442      -1.39206524       0.00000000
Si       1.29156895      -1.30952216      -1.43143716       0.00000000
Si       1.41771871       1.44104599       1.20662770       0.00000000
Si       0.69947632       2.17240184      -2.56968988       0.00000000
Si       2.31634028       0.42858990      -2.60723544       0.00000000
Si      -2.66346389      -2.62795169      -0.11685832       0.00000000
Si       0.01241298      -2.66910023       2.63405328       0.00000000
Si       2.68545539      -2.62221761      -0.06881553       0.00000000
Si      -2.71795394       0.09682776       2.60263159       0.00000000
