10
Lattice="16.290000149 0.0 0.0 0.0 16.290000149 0.0 0.0 0.0 29.1751946751" Properties=species:S:1:pos:R:3:initial_magmoms:R:1 pbc="T T T"
Si       1.28882246       1.40919904       1.31889385       0.00000000
Si      -1.32331816       1.37373571      -1.33453175       0.00000000
Si       1.40382497      -1.31872438      -1.31349644       0.00000000
Si      -1.31748634      -1.32753727       1.44160472       0.00000000
Si      -2.56005497       2.74075995       0.08277003       0.00000000
Si       0.01181025      -2.69314427      -2.62603010       0.00000000
Si       2.77446396      -2.55702503       0.13155095       0.00000000
Si      -2.71179632       0.01609452      -2.66559166       0.00000000
Si       2.73442314       0.07939746      -2.65570127       0.00000000
Si       2.70537806       0.18575487       2.69730510       0.00000000
