10
Lattice="16.290000149 0.0 0.0 0.0 16.290000149 0.0 0.0 0.0 29.1751946751" Properties=species:S:1:pos:R:3:initial_magmoms:R:1 pbc="T T T"
Si       1.38023542       1.36347301       1.30567749       0.00000000
Si       1.33123510      -1.35848827      -1.36256912       0.00000000
Si      -1.32198238       1.38225538      -1.34865255       0.00000000
Si      -1.36270738      -1.35827650       1.34605596       0.00000000
Si      -0.00187335       2.67799457       2.66699207       0.00000000
Si      -2.64758114       0.03787425      -2.70741722       0.00000000
Si       2.74282878       0.04592151      -2.61969908       0.00000000
Si      -0.09272268      -2.77899258      -2.60313340       0.00000000
Si       2.70782156      -0.00131949       2.68697708       0.00000000
Si       2.70692561      -2.69902496      -0.00172134       0.00000000
