10
Lattice="16.290000149 0.0 0.0 0.0 16.290000149 0.0 0.0 0.0 29.1751946751" Properties=species:S:1:pos:R:3:initial_magmoms:R:1 pbc="T T T"
Si      -1.34478838      -1.32646213      -1.40732387       0.00000000
Si      -1.38481291       1.35068536       1.35410831       0.00000000
Si       1.35431803       1.34744365      -1.39381575       0.00000000
Si       1.39245309      -1.35483931       1.35084069       0.00000000
Si      -2.68402187      -2.67563252      -0.03501023       0.00000000
Si       2.66244088      -2.71643897      -0.07247118       0.00000000
Si      -2.71774217       2.66527208      -0.08807991       0.00000000
Si       0.02502144       2.71305065       2.67381907       0.00000000
Si       2.75167587       0.05476698       2.66480393       0.00000000
Si      -2.73463491      -0.03502350       2.70807074       0.00000000
