10
Lattice="16.290000149 0.0 0.0 0.0 16.290000149 0.0 0.0 0.0 29.1751946751" Properties=species:S:1:pos:R:3:initial_magmoms:R:1 pbc="T T T"
Si       1.32572908       1.33377732       1.33864837       0.00000000
Si      -1.41574762       1.34519172      -1.25464132       0.00000000
Si       1.23346252      -1.20092227      -1.59541343       0.00000000
Si      -1.45834597      -1.43888659       1.21459545       0.00000000
Si      -2.45221517      -0.51060093      -2.20716183       0.00000000
Si      -0.70685569      -2.05386668      -2.65906021       0.00000000
Si       2.62527127       2.62328559      -0.13319352       0.00000000
Si       2.64374860      -0.10053276       2.61482974       0.00000000
Si       2.53159634      -2.73169358      -0.27643205       0.00000000
Si      -0.11714139       2.66601426       2.62031468       0.00000000
