10
Lattice="16.290000149 0.0 0.0 0.0 16.290000149 0.0 0.0 0.0 29.1751946751" Properties=species:S:1:pos:R:3:initial_magmoms:R:1 pbc="T T T"
Si       0.06349842       1.07831656       1.05792173       0.00000000
H        1.13616887       1.80822260      -1.93554077       0.00000000
H       -1.23600376      -2.16823160       1.72078216       0.00000000
Si      -2.47831175      -1.39470094      -1.05170742       0.00000000
Si      -1.56603916       0.40321008       2.61217188       0.00000000
Si      -0.48254238      -2.27862241      -2.02350398       0.00000000
Si       2.26216137       1.27000099       1.71655175       0.00000000
Si      -0.39255642       3.20870649       0.16125130       0.00000000
Si      -3.09309636      -0.32236281       0.99609950       0.00000000
Si       2.27617077       0.84450619      -2.22420014       0.00000000
