10
Lattice="16.290000149 0.0 0.0 0.0 16.290000149 0.0 0.0 0.0 29.1751946751" Properties=species:S:1:pos:R:3:initial_magmoms:R:1 pbc="T T T"
Si       0.52325598      -0.67704499       2.23120219       0.00000000
Si      -2.01038150       1.36518346       0.08034849       0.00000000
Si       1.15562564       2.05987052      -0.59485304       0.00000000
Si      -1.21917619      -1.59200542      -1.41164179       0.00000000
Si       2.19939437      -1.41854950      -1.03143066       0.00000000
H       -1.03954636       1.10903950      -2.39928048       0.00000000
H       -2.66155796      -1.30298824      -0.97249676       0.00000000
H       -1.55725885       2.64901466      -0.58149081       0.00000000
Si      -0.00837306       2.21780207      -2.61368899       0.00000000
H        3.38954178      -1.04220163      -0.13554795       0.00000000
