10
Lattice="16.290000149 0.0 0.0 0.0 16.290000149 0.0 0.0 0.0 29.1751946751" Properties=species:S:1:pos:R:3:initial_magmoms:R:1 pbc="T T T"
Si       1.30495933      -1.38002365       1.37461847       0.00000000
Si      -1.37394748      -1.38344455      -1.30909099       0.00000000
Si      -1.32269914       1.37150398       1.37336394       0.00000000
Si       1.35205372       1.34855137      -1.37444342       0.00000000
Si      -2.68354946       2.69632082      -0.01765099       0.00000000
Si       2.68453012      -0.01847286       2.70821662       0.00000000
Si      -0.00475668      -2.72483484      -2.67411082       0.00000000
Si      -2.69909012      -0.01936881      -2.70080612       0.00000000
Si       2.69553728       2.70878267      -0.02051016       0.00000000
Si      -2.66193263       0.02233359       2.74567757       0.00000000
