10
Lattice="16.290000149 0.0 0.0 0.0 16.290000149 0.0 0.0 0.0 29.1751946751" Properties=species:S:1:pos:R:3:initial_magmoms:R:1 pbc="T T T"
Si      -1.36979353      -1.34229601       1.34106700       0.00000000
Si      -1.38565999       1.34216569      -1.33310217       0.00000000
Si       1.34920297      -1.36205578      -1.35877634       0.00000000
Si       1.36695907       1.36575361       1.34751472       0.00000000
Si       0.00540828       2.69692355      -2.63317802       0.00000000
Si      -0.00109143      -2.69930189       2.66655444       0.00000000
Si       2.71402805      -0.00456120      -2.69056563       0.00000000
Si      -2.71090037      -2.70184313      -0.02582005       0.00000000
Si      -2.68731245       0.02254536       2.72968956       0.00000000
Si      -2.70241328       2.71899650       0.05009381       0.00000000
