10
Lattice="16.290000149 0.0 0.0 0.0 16.290000149 0.0 0.0 0.0 29.1751946751" Properties=species:S:1:pos:R:3:initial_magmoms:R:1 pbc="T T T"
H        0.65272402      -0.41896251       0.04825577       0.00000000
H       -1.14785857      -1.62681715       1.12779633       0.00000000
Si      -1.86544937      -1.70794136      -0.19751607       0.00000000
Si       0.85779883       1.75057229       1.75693022       0.00000000
Si      -0.08454510       0.82640800      -2.56919682       0.00000000
Si      -2.20970594       0.24309567      -1.56691218       0.00000000
Si       2.63546138       0.20067651       1.12998446       0.00000000
Si       1.40322061      -0.97337638      -2.45208759       0.00000000
Si      -0.25689330      -2.49838103      -1.72084051       0.00000000
Si      -0.37186812       3.07112115       0.24405050       0.00000000
