10
Lattice="16.290000149 0.0 0.0 0.0 16.290000149 0.0 0.0 0.0 29.1751946751" Properties=species:S:1:pos:R:3:initial_magmoms:R:1 pbc="T T T"
Si      -1.46346429       1.21094974       1.33925814       0.00000000
Si       1.17838277       1.52909344      -1.31629726       0.00000000
Si      -0.22620946      -1.85310155      -1.43649906       0.00000000
Si       1.43688879      -1.18610749       1.44603935       0.00000000
H       -2.93909395      -1.26395740      -1.42313682       0.00000000
Si       2.08298277      -2.02830050      -2.03797487       0.00000000
Si      -2.61746419      -0.42803604       2.52032837       0.00000000
Si       2.53685476       0.18003708      -2.64709459       0.00000000
Si       3.15703135      -1.93261304       0.06007173       0.00000000
Si      -0.00506456       2.59757084       2.68773563       0.00000000
