10
Lattice="16.290000149 0.0 0.0 0.0 16.290000149 0.0 0.0 0.0 29.1751946751" Properties=species:S:1:pos:R:3:initial_magmoms:R:1 pbc="T T T"
Si       1.34740293      -1.36048706       1.35469181       0.00000000
Si      -1.31282366      -1.38238082      -1.36703292       0.00000000
Si      -1.37941278       1.34954995       1.33917061       0.00000000
Si       1.32485757       1.38336799      -1.36000170       0.00000000
Si      -2.63084317       0.05192926      -2.64321429       0.00000000
Si       2.67516826      -0.03070665      -2.63434503       0.00000000
Si      -0.00727511       2.71839866       2.66258662       0.00000000
Si       2.66415622      -2.73731787      -0.02850417       0.00000000
Si       2.70598894       0.00259011       2.70273168       0.00000000
Si      -0.02775002      -2.70934794       2.70384034       0.00000000
