10
Lattice="16.290000149 0.0 0.0 0.0 16.290000149 0.0 0.0 0.0 29.1751946751" Properties=species:S:1:pos:R:3:initial_magmoms:R:1 pbc="T T T"
Si       1.32027193      -1.44042697       1.27577291       0.00000000
Si      -1.34910523      -1.36301689      -1.34628936       0.00000000
Si       1.38883654       1.35904213      -1.31375902       0.00000000
Si      -1.29041236       1.36827856       1.41199190       0.00000000
Si       2.74724337      -0.05136237       2.45468418       0.00000000
Si       0.01894527       2.70203861      -2.66532908       0.00000000
Si      -2.66466935       2.72044631       0.06774480       0.00000000
Si      -2.71780733      -0.00601101      -2.67177680       0.00000000
Si      -0.06348213      -2.77632102       2.61596466       0.00000000
Si       2.73992916      -0.01122381      -2.66559166       0.00000000
