10
Lattice="16.290000149 0.0 0.0 0.0 16.290000149 0.0 0.0 0.0 29.1751946751" Properties=species:S:1:pos:R:3:initial_magmoms:R:1 pbc="T T T"
Si       0.61406785      -1.30602796       0.43806555       0.00000000
Si      -1.50822432       1.47079153       0.63844079       0.00000000
H        2.01528479       0.34314885      -1.41648488       0.00000000
Si       1.10791549       1.24556599      -2.22023231       0.00000000
Si      -0.03282435       2.67307499      -0.75382868       0.00000000
Si      -2.82746624      -0.22853241      -0.50394314       0.00000000
Si      -1.61457848      -1.51597348      -2.11184647       0.00000000
Si      -0.23451084      -2.96790771      -0.95633371       0.00000000
Si      -0.20947311       1.62727327       2.66529991       0.00000000
Si       2.92159524      -1.21901329       0.08093199       0.00000000
