10
Lattice="16.290000149 0.0 0.0 0.0 16.290000149 0.0 0.0 0.0 29.1751946751" Properties=species:S:1:pos:R:3:initial_magmoms:R:1 pbc="T T T"
Si       1.35532801      -1.35726652       1.30366440       0.00000000
Si       1.37181349       1.25335261      -1.43194773       0.00000000
Si      -1.31090518      -1.42912171      -1.32341601       0.00000000
Si      -1.19731501       1.40212918       1.47611897       0.00000000
Si      -2.56795399       2.64042983       0.03107158       0.00000000
Si       2.72267804       2.59662602      -0.12061025       0.00000000
Si      -2.64083871      -0.07061715      -2.68884429       0.00000000
Si       2.74282877      -0.00452862       2.59562954       0.00000000
Si      -2.56261087      -0.02666673       2.77715761       0.00000000
Si       0.00983916      -2.66602142       2.69602139       0.00000000
