10
Lattice="16.28999089631971 0.0 0.0 0.0 16.28999089631971 0.0 0.0 0.0 34.54679606040008" Properties=species:S:1:pos:R:3:initial_magmoms:R:1 pbc="T T T"
Si      -0.55994987       1.20815748       1.92277210       0.00000000
Si       1.67742365      -1.68171444       0.02801747       0.00000000
Si      -0.05621190       1.44355205      -1.93500168       0.00000000
Si      -2.03735513      -1.47844782       0.00798031       0.00000000
Si      -2.42451956       2.22708313       0.50313982       0.00000000
Si       0.55151261      -3.30444279      -1.28255052       0.00000000
Si      -2.46576584       1.90473987      -1.84625091       0.00000000
Si      -0.44168447      -2.08585305      -3.14023642       0.00000000
Si       0.58414637      -0.01330893      -3.75475517       0.00000000
Si      -1.71890192      -0.25892955       3.39231214       0.00000000
