10
Lattice="16.28999089631971 0.0 0.0 0.0 16.28999089631971 0.0 0.0 0.0 34.54679606040008" Properties=species:S:1:pos:R:3:initial_magmoms:R:1 pbc="T T T"
Si      -1.35778779      -1.35649636       1.35772439       0.00000000
Si       1.35685926       1.35836150       1.35751711       0.00000000
Si      -1.35576783       1.35706644      -1.36062632       0.00000000
Si       1.35925389      -1.35672442      -1.35813895       0.00000000
Si       0.00658116       2.71192203      -2.71103715       0.00000000
Si       2.71287144      -2.71529413       0.00086367       0.00000000
Si      -0.00048870      -2.71395835       2.71493058       0.00000000
Si       2.71292031       2.71622259       0.00148551       0.00000000
Si       2.71433754       0.00071690       2.71524150       0.00000000
Si      -0.00065160       2.71599453       2.71479239       0.00000000
