10
Lattice="16.28999089631971 0.0 0.0 0.0 16.28999089631971 0.0 0.0 0.0 34.54679606040008" Properties=species:S:1:pos:R:3:initial_magmoms:R:1 pbc="T T T"
Si       1.35553977       1.35692442       1.35775894       0.00000000
Si      -1.35765747       1.35736425      -1.35737892       0.00000000
Si       1.35751086      -1.35763304      -1.35727528       0.00000000
Si      -1.35817875      -1.35944937       1.35686072       0.00000000
Si       2.71357191       0.00022806      -2.71330688       0.00000000
Si      -0.00055386       2.71269225      -2.71437783       0.00000000
Si       2.71428867       2.71536381       0.00017273       0.00000000
Si      -2.71477737       2.71533123       0.00055275       0.00000000
Si      -2.71538010      -2.71483315       0.00027637       0.00000000
Si       0.00050499       2.71518462       2.71503422       0.00000000
