10
Lattice="16.28999089631971 0.0 0.0 0.0 16.28999089631971 0.0 0.0 0.0 34.54679606040008" Properties=species:S:1:pos:R:3:initial_magmoms:R:1 pbc="T T T"
Si       0.63081396       1.80918369      -1.35157506       0.00000000
Si      -1.29072186      -1.89596052      -0.53823938       0.00000000
Si      -1.69013637       0.60877359       1.53678053       0.00000000
Si       1.72287927      -0.72552402       1.45248631       0.00000000
Si       1.83101229       0.32518098      -2.82734592       0.00000000
Si       3.30514326      -0.61717923      -1.10563628       0.00000000
Si      -3.28157163      -0.98380197       0.91431602       0.00000000
Si       2.39858847      -2.67304891       0.24490237       0.00000000
Si       0.42658623      -1.69134183       3.20660086       0.00000000
Si       0.09935271      -3.63632548       0.30732847       0.00000000
