10
Lattice="16.28999089631971 0.0 0.0 0.0 16.28999089631971 0.0 0.0 0.0 34.54679606040008" Properties=species:S:1:pos:R:3:initial_magmoms:R:1 pbc="T T T"
Si      -1.72287927       0.72552402      -1.45248631       0.00000000
Si      -1.29629304      -0.96581781       1.75411455       0.00000000
Si       0.67570920      -1.94752489      -1.20758393       0.00000000
Si       1.56094038       1.17838602       1.48261113       0.00000000
Si       1.58226399       0.10834479      -2.55812258       0.00000000
Si      -1.62352656      -2.91080146      -1.14515784       0.00000000
Si       2.42789418       2.11745565      -1.46091573       0.00000000
Si      -2.83191876       0.67914639       2.21932197       0.00000000
Si      -3.41301564       1.33429761       0.08429423       0.00000000
Si       2.09228760      -0.50458275       3.03949791       0.00000000
