10
Lattice="16.28999089631971 0.0 0.0 0.0 16.28999089631971 0.0 0.0 0.0 34.54679606040008" Properties=species:S:1:pos:R:3:initial_magmoms:R:1 pbc="T T T"
Si      -1.82524563      -0.77859684       1.20081276       0.00000000
Si      -0.86651397       1.52456481      -1.55256843       0.00000000
Si       0.69349788      -1.85047884      -1.26206426       0.00000000
Si       1.17600768       0.90101619       1.83795967       0.00000000
Si      -2.09706057      -0.08522928      -2.74014975       0.00000000
Si      -2.86513407       1.38057750       1.56928909       0.00000000
Si      -0.61195014      -2.04095781       2.84824674       0.00000000
Si       2.82714579      -1.26895842      -1.91997381       0.00000000
Si      -0.56143485      -1.73019348      -3.20535717       0.00000000
Si       1.06227090       2.31694299      -2.69230242       0.00000000
