10
Lattice="16.28999089631971 0.0 0.0 0.0 16.28999089631971 0.0 0.0 0.0 34.54679606040008" Properties=species:S:1:pos:R:3:initial_magmoms:R:1 pbc="T T T"
Si       0.80891253       1.98946838      -1.09841599       0.00000000
Si      -2.31630768      -0.68392750      -0.03541049       0.00000000
Si       1.19892771      -2.03118774      -0.56573865       0.00000000
Si       0.20377161       1.71685523       1.85506034       0.00000000
Si       0.61488234      -2.37308226       1.64629394       0.00000000
Si      -1.75679505      -2.29296804       1.61288717       0.00000000
Si       1.22114727       3.56171402       0.67034641       0.00000000
Si      -1.94847948       2.69515118       1.96018630       0.00000000
Si      -0.69250419       2.60796710      -2.76502346       0.00000000
Si      -3.14323695      -0.23301542      -2.24067190       0.00000000
