10
Lattice="16.28999089631971 0.0 0.0 0.0 16.28999089631971 0.0 0.0 0.0 34.54679606040008" Properties=species:S:1:pos:R:3:initial_magmoms:R:1 pbc="T T T"
Si       1.04989050      -0.59875524       2.03133171       0.00000000
Si      -2.15225109       0.97829595       0.10512596       0.00000000
Si       1.01737566       1.84485879      -1.18471394       0.00000000
Si      -0.20377161      -1.71685523      -1.85506034       0.00000000
Si       0.60514092       0.27261315      -2.95347634       0.00000000
Si      -0.74937258      -1.64379784       3.13790939       0.00000000
Si      -0.48104370       3.63669363      -0.77270862       0.00000000
Si      -3.76457013      -0.79500087      -0.53962126       0.00000000
Si      -2.52007929      -2.40078273      -1.89047083       0.00000000
Si       2.10659022       1.22132646       3.13205716       0.00000000
