10
Lattice="16.28999089631971 0.0 0.0 0.0 16.28999089631971 0.0 0.0 0.0 34.54679606040008" Properties=species:S:1:pos:R:3:initial_magmoms:R:1 pbc="T T T"
Si       1.29072186       1.89596052       0.53823938       0.00000000
Si       1.39007457      -1.74036496       0.84556785       0.00000000
Si       0.21857922      -0.51532438      -2.34151405       0.00000000
Si      -1.99084977       0.91215855       1.45255540       0.00000000
Si      -0.39941451       2.50473411       2.07501992       0.00000000
Si       3.01360113       1.17043650       1.99072569       0.00000000
Si       3.68931033      -0.77708839       0.78314176       0.00000000
Si       1.02636774      -1.96131812       3.24705518       0.00000000
Si      -3.56305794       1.81866447      -0.02812111       0.00000000
Si       1.64041929       0.85076154      -3.66292974       0.00000000
