10
Lattice="16.28999089631971 0.0 0.0 0.0 16.28999089631971 0.0 0.0 0.0 34.54679606040008" Properties=species:S:1:pos:R:3:initial_magmoms:R:1 pbc="T T T"
Si       1.28562309       1.25768574      -1.49242242       0.00000000
Si      -1.20019833       1.48400271       1.47577086       0.00000000
Si      -1.48131486      -1.37037996      -1.37382321       0.00000000
Si       1.47413097      -0.94236021       1.72170964       0.00000000
Si      -1.83101229      -0.32518098       2.82734592       0.00000000
Si       2.53361628      -0.20049732      -2.80502867       0.00000000
Si      -0.21761811       2.54161467      -2.79936300       0.00000000
Si       2.31976116       1.06675065       2.81891649       0.00000000
Si       2.56007124       2.82119994      -0.18644916       0.00000000
Si      -2.95888302       2.61786816       0.21961411       0.00000000
