10
Lattice="16.28999089631971 0.0 0.0 0.0 16.28999089631971 0.0 0.0 0.0 34.54679606040008" Properties=species:S:1:pos:R:3:initial_magmoms:R:1 pbc="T T T"
Si       1.99871784       0.57679632      -1.09278486       0.00000000
Si      -0.70155491       2.24166690       0.36201608       0.00000000
Si      -1.32707137      -0.92971917      -1.74561603       0.00000000
Si       0.43306965      -1.31237127       1.94861312       0.00000000
Si      -2.47820489      -1.51174458       1.60034668       0.00000000
Si       1.34713413       3.19095036       1.13268644       0.00000000
Si       2.27053278      -0.11657124       2.84817765       0.00000000
Si       1.41762096       1.23194754      -3.22781260       0.00000000
Si      -1.29513319      -3.28515756      -1.28807801       0.00000000
Si      -3.52408805       0.03785796      -1.48458030       0.00000000
