10
Lattice="16.28999089631971 0.0 0.0 0.0 16.28999089631971 0.0 0.0 0.0 34.54679606040008" Properties=species:S:1:pos:R:3:initial_magmoms:R:1 pbc="T T T"
Si      -1.26206775      -0.97093287      -1.70167248       0.00000000
Si      -0.49208832       0.26676504       2.27193677       0.00000000
Si       2.19649473      -0.87506622      -0.19805689       0.00000000
Si      -0.12637782       2.33259768      -0.68133229       0.00000000
Si       1.18879533       1.92057471      -2.58406724       0.00000000
Si       2.83667544       0.29874231      -2.12238360       0.00000000
Si      -0.52865937       0.47931696      -3.50487806       0.00000000
Si       1.61119503       1.07101863       3.02903022       0.00000000
Si      -1.75568733       2.20779999       2.23566261       0.00000000
Si       3.05514063      -0.42295356       1.90732968       0.00000000
