10
Lattice="16.28999089631971 0.0 0.0 0.0 16.28999089631971 0.0 0.0 0.0 34.54679606040008" Properties=species:S:1:pos:R:3:initial_magmoms:R:1 pbc="T T T"
Si      -1.35096228      -1.35509994       1.40170940       0.00000000
Si       1.36432008       1.36045935       1.40440405       0.00000000
Si       1.45640745      -1.37753127      -1.50536366       0.00000000
Si      -1.39839876       1.42514694      -1.58333928       0.00000000
Si      -2.69720046      -2.70782154       0.01649265       0.00000000
Si      -2.69910639       2.71476108       0.02438314       0.00000000
Si       2.70927135       2.71155195       0.03556940       0.00000000
Si       2.73315249      -2.70982521       0.01841691       0.00000000
Si      -2.70871749       0.00102627       2.76340667       0.00000000
Si       0.00599472      -2.71329498       2.76319939       0.00000000
