10
Lattice="16.28999089631971 0.0 0.0 0.0 16.28999089631971 0.0 0.0 0.0 34.54679606040008" Properties=species:S:1:pos:R:3:initial_magmoms:R:1 pbc="T T T"
Si       1.35716877       1.35738054      -1.35689527       0.00000000
Si      -1.35744570       1.35729909       1.35741347       0.00000000
Si       1.35731538      -1.35755973       1.35765530       0.00000000
Si      -1.36037790      -1.35713619      -1.35803531       0.00000000
Si      -2.71094433      -0.00125433      -2.71513786       0.00000000
Si      -2.71350023       0.00037467       2.71392872       0.00000000
Si       2.71453302       0.00094482       2.71365235       0.00000000
Si       0.00050499      -2.71415835       2.71475785       0.00000000
Si       0.00412137       2.71073745      -2.71828162       0.00000000
Si      -0.00087966       2.71435383       2.71482694       0.00000000
