10
Lattice="16.28999089631971 0.0 0.0 0.0 16.28999089631971 0.0 0.0 0.0 34.54679606040008" Properties=species:S:1:pos:R:3:initial_magmoms:R:1 pbc="T T T"
Si      -1.44036180       1.24131429       1.37838339       0.00000000
Si      -1.36342413      -1.34423451      -1.36470285       0.00000000
Si       1.34597754       1.37516922      -1.36853754       0.00000000
Si       1.49144724      -1.26513027       1.41203198       0.00000000
Si       0.24101055       2.06656569       2.97551721       0.00000000
Si       2.68719840       2.72735325      -0.01537333       0.00000000
Si       2.72432331      -2.69562033       0.00003455       0.00000000
Si      -0.01132155      -2.69905752      -2.72415458       0.00000000
Si       2.70374904       0.01498680      -2.72256543       0.00000000
Si      -2.73895173      -2.68889256      -0.00559658       0.00000000
