10
Lattice="16.28999089631971 0.0 0.0 0.0 16.28999089631971 0.0 0.0 0.0 34.54679606040008" Properties=species:S:1:pos:R:3:initial_magmoms:R:1 pbc="T T T"
Si       0.28504242       0.01413972      -2.33602111       0.00000000
Si      -1.95743735      -0.69887847       1.24406334       0.00000000
Si       0.68253471       1.87235631       1.40583916       0.00000000
Si       1.58107482      -2.02038892       0.09863673       0.00000000
Si       1.89736146       1.78743654      -1.69127389       0.00000000
Si      -0.65609604      -2.10210909       2.73641321       0.00000000
Si       2.08555983       0.61934580       2.75939721       0.00000000
Si       3.30023997      -0.83465725       1.34150954       0.00000000
Si       1.71390348       3.51974772       0.08808336       0.00000000
Si       0.52619958      -3.66726086       1.38695587       0.00000000
