10
Lattice="16.28999089631971 0.0 0.0 0.0 16.28999089631971 0.0 0.0 0.0 34.54679606040008" Properties=species:S:1:pos:R:3:initial_magmoms:R:1 pbc="T T T"
Si      -1.79926308      -1.04504260       1.10657768       0.00000000
Si      -1.04989050       0.59875524      -2.03133171       0.00000000
Si       1.05669972       1.82008170       1.10072545       0.00000000
Si      -0.31113900      -2.31853012       2.48471924       0.00000000
Si       2.40974712       0.41915799       2.50982095       0.00000000
Si       3.24071631      -0.60297435      -1.81993975       0.00000000
Si      -3.01394322       0.40896045       2.52446535       0.00000000
Si      -0.31698711       3.12033321       2.51420840       0.00000000
Si       2.91315699      -2.77096877      -0.20280332       0.00000000
Si      -0.03251484       2.44361403      -3.21604565       0.00000000
