10
Lattice="16.28999089631971 0.0 0.0 0.0 16.28999089631971 0.0 0.0 0.0 34.54679606040008" Properties=species:S:1:pos:R:3:initial_magmoms:R:1 pbc="T T T"
Si      -1.35659862      -1.35845131       1.35686072       0.00000000
Si       1.35700587      -1.35721327      -1.35800077       0.00000000
Si      -1.35747828       1.35764459      -1.35772439       0.00000000
Si       1.35909099       1.35849819       1.35696436       0.00000000
Si      -0.00043983      -2.71231321       2.71151044       0.00000000
Si      -0.00141723       2.71550569      -2.71375599       0.00000000
Si       2.71464705      -2.71467526      -0.00072548       0.00000000
Si      -2.71482624      -2.71467526      -0.00031092       0.00000000
Si      -2.71433754      -0.00071690      -2.71524150       0.00000000
Si       0.00203625       2.71187302       2.71793615       0.00000000
