10
Lattice="16.28999089631971 0.0 0.0 0.0 16.28999089631971 0.0 0.0 0.0 34.54679606040008" Properties=species:S:1:pos:R:3:initial_magmoms:R:1 pbc="T T T"
Si       1.35656604       1.35668170      -1.35710255       0.00000000
Si      -1.35705474       1.35337483       1.36097179       0.00000000
Si       1.35710361      -1.35743693       1.35907172       0.00000000
Si      -1.35909099      -1.35849819      -1.35696436       0.00000000
Si       0.02243133       2.69070238       2.72197813       0.00000000
Si      -0.01830996      -2.71862737       2.70771029       0.00000000
Si       2.71308321      -2.71468519      -0.00069094       0.00000000
Si       2.71373481      -0.00065486      -2.71489603       0.00000000
Si      -0.00169416       2.71461610      -2.71496513       0.00000000
Si       2.71583622       2.71432288       0.00010364       0.00000000
