10
Lattice="16.28999089631971 0.0 0.0 0.0 16.28999089631971 0.0 0.0 0.0 34.54679606040008" Properties=species:S:1:pos:R:3:initial_magmoms:R:1 pbc="T T T"
Si      -1.51399260      -1.32109198      -1.20084730       0.00000000
Si      -1.29200877       1.40551912       1.37517053       0.00000000
Si       1.08077634       1.30717639      -1.69393400       0.00000000
Si       1.27006614      -1.15256914       1.67762790       0.00000000
Si       0.17871759      -2.61658681      -2.28057347       0.00000000
Si      -1.82335599       3.08848789      -0.18171625       0.00000000
Si      -0.46177263      -2.02713316       3.03179397       0.00000000
Si       0.33383097       3.50314984      -1.10988554       0.00000000
Si      -0.18194301       1.54885483       3.40673056       0.00000000
Si       1.97071533       0.57461509       3.16752841       0.00000000
