10
Lattice="16.28999089631971 0.0 0.0 0.0 16.28999089631971 0.0 0.0 0.0 34.54679606040008" Properties=species:S:1:pos:R:3:initial_magmoms:R:1 pbc="T T T"
Si       0.05621190      -1.44355205       1.93500168       0.00000000
Si       0.64035827      -1.45686098      -1.81975350       0.00000000
Si      -2.40955394       0.46118782       0.08875077       0.00000000
Si       1.41164742       2.01535970       0.25060260       0.00000000
Si      -2.36830766       0.78353108       2.43814149       0.00000000
Si      -0.38547257      -3.52940510      -1.20523475       0.00000000
Si      -0.75628184      -0.87913613      -3.59694532       0.00000000
Si      -2.69039354       2.66541215      -0.76559198       0.00000000
Si      -0.50373797      -0.23539457       3.85777378       0.00000000
Si       2.44088220       2.58088334      -1.84984378       0.00000000
