10
Lattice="16.28999089631971 0.0 0.0 0.0 16.28999089631971 0.0 0.0 0.0 34.54679606040008" Properties=species:S:1:pos:R:3:initial_magmoms:R:1 pbc="T T T"
Si       1.47696543       1.24797690      -1.24980014       0.00000000
Si       1.49115402      -0.73352241       1.70146520       0.00000000
Si      -1.27444815      -1.56351420      -1.30597326       0.00000000
Si      -0.96809841       1.48475205       1.66899120       0.00000000
Si       1.29837816       1.40276448       2.71379053       0.00000000
Si      -2.60064963       2.26605303      -0.03917609       0.00000000
Si      -0.24031008      -1.75444929       3.00536566       0.00000000
Si      -0.03007134       2.43599031      -2.61743947       0.00000000
Si      -2.13944715      -0.10125864       3.05739316       0.00000000
Si       2.66391999      -0.28499355      -2.60780090       0.00000000
