10
Lattice="16.28999089631971 0.0 0.0 0.0 16.28999089631971 0.0 0.0 0.0 34.54679606040008" Properties=species:S:1:pos:R:3:initial_magmoms:R:1 pbc="T T T"
Si      -1.14502410      -0.12316869      -1.98029255       0.00000000
Si      -0.73795329       2.23881615       0.47640058       0.00000000
Si      -0.55755783      -1.89920223       1.37427232       0.00000000
Si       2.28990159      -0.00076563      -0.78701100       0.00000000
Si       0.97177995      -1.33503066       3.10748604       0.00000000
Si      -0.41625837       1.77277554      -3.14914950       0.00000000
Si      -3.42528201      -0.03539817      -1.40418986       0.00000000
Si      -0.09777258       3.41262468      -1.44792613       0.00000000
Si       0.12069261       2.69092881       2.58178715       0.00000000
Si       3.09089718      -2.10735585      -0.05720953       0.00000000
