10
Lattice="16.28999089631971 0.0 0.0 0.0 16.28999089631971 0.0 0.0 0.0 34.54679606040008" Properties=species:S:1:pos:R:3:initial_magmoms:R:1 pbc="T T T"
Si      -1.34650371      -1.33718094       1.36492049       0.00000000
Si      -1.33970426       1.17444384      -1.53463172       0.00000000
Si       1.36884870       1.37650500       1.35960028       0.00000000
Si       1.33038801      -1.44783891      -1.34423040       0.00000000
Si       0.55014588       1.83482415      -2.78264721       0.00000000
Si       2.36175678       0.19955250      -2.66198620       0.00000000
Si      -2.69798957      -2.69314425      -0.02587902       0.00000000
Si      -2.68483211       2.71134018      -0.00748629       0.00000000
Si       0.00869886      -2.69731449       2.72026115       0.00000000
Si      -2.70453202       0.01754433       2.72129756       0.00000000
