10
Lattice="16.28999089631971 0.0 0.0 0.0 16.28999089631971 0.0 0.0 0.0 34.54679606040008" Properties=species:S:1:pos:R:3:initial_magmoms:R:1 pbc="T T T"
Si       1.33532388       1.35136953      -1.36615381       0.00000000
Si       1.50703677      -1.18801341       1.36763933       0.00000000
Si      -1.23287607       1.43049006       1.41199744       0.00000000
Si      -1.38394953      -1.36096434      -1.36307915       0.00000000
Si       0.03007134      -2.43599031       2.61743947       0.00000000
Si      -2.57057829      -0.16993728       2.57826338       0.00000000
Si       2.67486687       2.71524978       0.00538930       0.00000000
Si       2.69399133      -2.72098386       0.00963856       0.00000000
Si       2.69283474      -0.00386073      -2.72412003       0.00000000
Si      -2.72432331       2.69562033      -0.00003455       0.00000000
