10
Lattice="16.28999089631971 0.0 0.0 0.0 16.28999089631971 0.0 0.0 0.0 34.54679606040008" Properties=species:S:1:pos:R:3:initial_magmoms:R:1 pbc="T T T"
Si      -1.32888933      -1.57633443      -1.12059505       0.00000000
Si       1.02229524       1.13365368      -1.82997936       0.00000000
Si      -1.39800780       1.15927785       1.61478724       0.00000000
Si       1.74656493      -1.41292944       0.95787955       0.00000000
Si       2.19229191      -0.94749156      -2.24264107       0.00000000
Si       0.38367837      -2.34000963      -2.71862709       0.00000000
Si      -2.06869968      -0.65713860       2.99735079       0.00000000
Si      -3.33578475      -0.54327150      -1.81426056       0.00000000
Si       1.57019310      -1.06991091       3.33556412       0.00000000
Si       2.88500787       2.40451803      -1.11164742       0.00000000
