10
Lattice="16.28999089631971 0.0 0.0 0.0 16.28999089631971 0.0 0.0 0.0 34.54679606040008" Properties=species:S:1:pos:R:3:initial_magmoms:R:1 pbc="T T T"
Si       1.99101267       1.20906009      -0.12347032       0.00000000
Si      -0.64018071      -1.17380853       1.92432671       0.00000000
Si      -1.64788011       1.62183240      -0.46168364       0.00000000
Si      -0.31848579      -1.63984914      -1.70122338       0.00000000
Si       2.16738450       0.86604156      -2.50115489       0.00000000
Si      -2.83667544      -0.29874231       2.12238360       0.00000000
Si      -3.36533481       0.18057465      -1.38249446       0.00000000
Si       1.74895956      -1.54052901      -2.83235520       0.00000000
Si       0.09777258      -3.41262468       1.44792613       0.00000000
Si      -1.04725152      -3.53579337      -0.53236642       0.00000000
