10
Lattice="16.28999089631971 0.0 0.0 0.0 16.28999089631971 0.0 0.0 0.0 34.54679606040008" Properties=species:S:1:pos:R:3:initial_magmoms:R:1 pbc="T T T"
Si       1.09775052      -2.06198820      -0.46631291       0.00000000
Si      -0.60040053       0.32995395       2.29076478       0.00000000
Si       1.77323166       1.55255103      -0.60564022       0.00000000
Si      -1.97346834       0.28536822      -1.56614533       0.00000000
Si       3.01837410      -0.74500686       0.48123714       0.00000000
Si      -0.62099109       2.68372863       1.84093070       0.00000000
Si       1.84137273       2.21514678       1.64225196       0.00000000
Si      -3.19051053      -1.36840887       0.07144281       0.00000000
Si      -0.37921491       1.26490221      -3.21651579       0.00000000
Si      -2.87371890      -0.56433447       2.29439220       0.00000000
