10
Lattice="16.28999089631971 0.0 0.0 0.0 16.28999089631971 0.0 0.0 0.0 34.54679606040008" Properties=species:S:1:pos:R:3:initial_magmoms:R:1 pbc="T T T"
Si       0.60040053      -0.32995395      -2.29076478       0.00000000
Si      -0.02059056       2.35377468      -0.44983408       0.00000000
Si      -2.27331837      -0.89428842       0.00362742       0.00000000
Si       1.62816921      -0.88348815       1.63109334       0.00000000
Si       2.44177326       1.88519283      -0.64851282       0.00000000
Si      -2.59011000      -1.69836282      -2.21932197       0.00000000
Si       2.37363219       1.22259708      -2.89640500       0.00000000
Si       1.69815105      -2.39194215      -2.75707769       0.00000000
Si       0.60587397      -2.01714183       3.46107270       0.00000000
Si      -1.71330075       3.64926951       0.62989208       0.00000000
