10
Lattice="16.28999089631971 0.0 0.0 0.0 16.28999089631971 0.0 0.0 0.0 34.54679606040008" Properties=species:S:1:pos:R:3:initial_magmoms:R:1 pbc="T T T"
Si      -1.35863487       1.35718268      -1.36110998       0.00000000
Si       1.35893202      -1.35789836      -1.36038450       0.00000000
Si      -1.34829072      -1.34854790       1.39220211       0.00000000
Si       1.35360030       1.34805376       1.39006021       0.00000000
Si       2.71374200      -2.71263992       0.00241828       0.00000000
Si      -2.71401174       2.71522785      -0.00728938       0.00000000
Si      -2.71811682      -2.71210235       0.00290193       0.00000000
Si       0.00080633       2.71431561      -2.71686520       0.00000000
Si      -2.71406061      -0.00008145      -2.71717612       0.00000000
Si       0.00113662      -2.71501826      -2.71676156       0.00000000
