10
Lattice="16.28999089631971 0.0 0.0 0.0 16.28999089631971 0.0 0.0 0.0 34.54679606040008" Properties=species:S:1:pos:R:3:initial_magmoms:R:1 pbc="T T T"
Si       1.41156338      -1.93558499       0.10830427       0.00000000
Si      -0.82399707       0.08601120      -2.26247094       0.00000000
Si       1.45506745       1.92094938       0.01091679       0.00000000
Si      -1.42659675       0.26357220       2.12697833       0.00000000
Si      -1.24413246      -2.01279959       2.59636591       0.00000000
Si       3.02727563       1.01444346       1.49159330       0.00000000
Si      -2.71013472       1.50394167      -2.06973426       0.00000000
Si       0.90648963      -2.93818562       2.16947091       0.00000000
Si       0.01189170       3.73603005       0.75861352       0.00000000
Si       1.77452250       2.53232937      -2.33090818       0.00000000
