10
Lattice="16.28999089631971 0.0 0.0 0.0 16.28999089631971 0.0 0.0 0.0 34.54679606040008" Properties=species:S:1:pos:R:3:initial_magmoms:R:1 pbc="T T T"
Si      -0.14296104      -0.06498081       2.34700700       0.00000000
Si      -1.75321125       1.36537893      -0.80269526       0.00000000
Si      -0.28033461      -2.12054165      -1.01774918       0.00000000
Si       2.91127454       0.19937331       0.34826645       0.00000000
Si       1.89867185       0.95348628       2.47341379       0.00000000
Si       2.47820489       1.51174458      -1.60034668       0.00000000
Si       1.15113352       0.58202541      -3.34596271       0.00000000
Si       1.18307169      -1.77341298      -2.88842469       0.00000000
Si      -1.04588316       1.54960254      -3.08492697       0.00000000
Si      -0.04922838      -2.35078451       2.76053238       0.00000000
