10
Lattice="16.28999089631971 0.0 0.0 0.0 16.28999089631971 0.0 0.0 0.0 34.54679606040008" Properties=species:S:1:pos:R:3:initial_magmoms:R:1 pbc="T T T"
Si      -0.04048065      -0.19093509      -2.35992750       0.00000000
Si      -2.15959788       0.58139010       0.80476806       0.00000000
Si       0.28083960      -2.20422434       0.85434274       0.00000000
Si       1.60067169       1.70274483       0.61441511       0.00000000
Si       0.04559571       3.03661890       1.82687014       0.00000000
Si       0.32208588      -1.88188107       3.20373347       0.00000000
Si      -0.84147624       1.91565513      -3.08972898       0.00000000
Si      -3.68893566       0.01721853      -0.92844566       0.00000000
Si       2.69039354      -2.66541215       0.76559198       0.00000000
Si       1.84037904      -1.25874459      -3.24487873       0.00000000
