10
Lattice="16.28999089631971 0.0 0.0 0.0 16.28999089631971 0.0 0.0 0.0 34.54679606040008" Properties=species:S:1:pos:R:3:initial_magmoms:R:1 pbc="T T T"
Si       1.47266487      -1.17423207      -1.37862521       0.00000000
Si       1.78595415       0.94643271       1.25228751       0.00000000
Si      -1.23667164       1.54448748      -1.34311109       0.00000000
Si      -1.02066624      -1.81120365       1.63147336       0.00000000
Si      -0.15913701       0.16418691       2.81280171       0.00000000
Si       0.86547141      -3.22913412       1.43873667       0.00000000
Si       2.70293454      -2.53659735       0.02843203       0.00000000
Si       0.12129534      -2.52553644      -2.72304908       0.00000000
Si      -2.59265124       0.18583632      -2.71741795       0.00000000
Si      -2.65129524      -2.68897401       0.12879053       0.00000000
