10
Lattice="16.28999089631971 0.0 0.0 0.0 16.28999089631971 0.0 0.0 0.0 34.54679606040008" Properties=species:S:1:pos:R:3:initial_magmoms:R:1 pbc="T T T"
Si       1.26703620      -1.47232278      -1.29956137       0.00000000
Si       1.36257705       1.35130437       1.35128486       0.00000000
Si      -1.35954711      -1.36348929       1.35252855       0.00000000
Si      -1.32548472       1.38196215      -1.39513859       0.00000000
Si       2.71770213      -0.12618234      -2.45814479       0.00000000
Si      -2.33473167      -0.07868070      -2.94207040       0.00000000
Si      -2.69939961      -2.71642266      -0.03504774       0.00000000
Si       0.00319284       2.70910845       2.70873288       0.00000000
Si      -2.71158453      -0.00524538       2.71077114       0.00000000
Si       0.00443088      -2.71845891       2.70925108       0.00000000
