10
Lattice="16.28999089631971 0.0 0.0 0.0 16.28999089631971 0.0 0.0 0.0 34.54679606040008" Properties=species:S:1:pos:R:3:initial_magmoms:R:1 pbc="T T T"
Si      -1.80861354      -1.39251807      -0.47598602       0.00000000
Si      -1.16999667       2.08114524       0.41266171       0.00000000
Si       2.21123718      -0.28209393      -1.13513926       0.00000000
Si      -0.44572698      -0.46543788       3.20052062       0.00000000
Si      -2.19229191       0.94749156       2.24264107       0.00000000
Si       1.88299368      -0.12163743       2.86524377       0.00000000
Si       3.22779575      -0.78115437       1.06082906       0.00000000
Si      -0.90907974      -3.37496220       0.49084115       0.00000000
Si       0.69271596       3.35200959       1.13099364       0.00000000
Si       0.82060875       1.88967258      -3.02795927       0.00000000
