10
Lattice="16.28999089631971 0.0 0.0 0.0 16.28999089631971 0.0 0.0 0.0 34.54679606040008" Properties=species:S:1:pos:R:3:initial_magmoms:R:1 pbc="T T T"
Si       1.38996054      -1.80967239       0.54400870       0.00000000
Si      -0.17159886      -0.08122194      -2.38013739       0.00000000
Si       1.45290510       1.80467136       0.64063614       0.00000000
Si      -2.62415610      -0.27451908       0.77567965       0.00000000
Si      -2.46832596      -0.09575262      -1.69151572       0.00000000
Si       1.07776269      -1.60155135       3.06571894       0.00000000
Si       3.11946984      -1.87475094      -1.10732907       0.00000000
Si       0.39491847       3.78354798      -0.12575041       0.00000000
Si       3.72387771       1.49481927      -0.24137860       0.00000000
Si       0.40830885       1.85044626      -3.59369792       0.00000000
