10
Lattice="16.28999089631971 0.0 0.0 0.0 16.28999089631971 0.0 0.0 0.0 34.54679606040008" Properties=species:S:1:pos:R:3:initial_magmoms:R:1 pbc="T T T"
Si       1.52732108       0.79715115      -1.60763605       0.00000000
Si      -1.36160358       1.83580155       1.01650550       0.00000000
Si      -1.68445509      -1.86369003      -0.17152494       0.00000000
Si       1.95586211      -0.89629209       1.39572589       0.00000000
Si       0.00075097      -0.95143374       2.83674265       0.00000000
Si      -0.34504501       1.33674111       3.21247381       0.00000000
Si      -2.14266021      -1.95734124       2.15924505       0.00000000
Si      -0.24127933      -3.67877070      -0.91922166       0.00000000
Si       0.56766089       2.00785653      -3.31034494       0.00000000
Si      -0.56222674       3.91818483       0.22901084       0.00000000
