10
Lattice="16.28999089631971 0.0 0.0 0.0 16.28999089631971 0.0 0.0 0.0 34.54679606040008" Properties=species:S:1:pos:R:3:initial_magmoms:R:1 pbc="T T T"
Si       1.35761904      -1.35063648      -1.35661889       0.00000000
Si      -1.35697329      -1.35575154       1.35634252       0.00000000
Si       1.35816476       1.35835535       1.35637706       0.00000000
Si      -1.35695700       1.35638100      -1.35958992       0.00000000
Si      -2.69941590       0.00012583      -2.70918890       0.00000000
Si      -0.00495216      -2.70707220      -2.70651152       0.00000000
Si       0.00103888      -2.71368594       2.71413600       0.00000000
Si      -2.71415835       0.00125086       2.71372144       0.00000000
Si       2.71354652       2.71541987      -0.00152006       0.00000000
Si       2.71488230      -2.71427238      -0.00169279       0.00000000
