10
Lattice="16.28999089631971 0.0 0.0 0.0 16.28999089631971 0.0 0.0 0.0 34.54679606040008" Properties=species:S:1:pos:R:3:initial_magmoms:R:1 pbc="T T T"
Si      -0.06814107      -0.66259575      -2.24789218       0.00000000
Si       0.98875413       1.70974953       1.38152715       0.00000000
Si      -2.46236382       0.46858185       0.19867874       0.00000000
Si       2.02339719      -1.32020676       0.80919006       0.00000000
Si      -2.44177326      -1.88519283       0.64851282       0.00000000
Si      -1.84137273      -2.21514678      -1.64225196       0.00000000
Si       3.13937622       0.78436350       0.95463215       0.00000000
Si       1.17700137      -2.96015364      -1.16101482       0.00000000
Si       1.04910858      -1.49781663       2.99793809       0.00000000
Si      -0.81360405      -2.76868098       2.27960616       0.00000000
