10
Lattice="16.28999089631971 0.0 0.0 0.0 16.28999089631971 0.0 0.0 0.0 34.54679606040008" Properties=species:S:1:pos:R:3:initial_magmoms:R:1 pbc="T T T"
Si       0.28033461       2.12054165       1.01774918       0.00000000
Si       1.46340630       0.34712866      -1.87067551       0.00000000
Si       0.78311733      -1.38937410       1.80994220       0.00000000
Si      -2.02999464      -0.65751327      -1.17137887       0.00000000
Si      -1.68668289       0.24441516      -3.32810201       0.00000000
Si      -1.62632844      -2.96315100      -1.71169106       0.00000000
Si      -1.47287664       3.48592058       0.21505393       0.00000000
Si       0.23110623      -0.23024286       3.77828156       0.00000000
Si       1.43146813       2.70256706      -2.32821353       0.00000000
Si       0.46393920      -0.68097087      -3.75499700       0.00000000
