10
Lattice="16.28999089631971 0.0 0.0 0.0 16.28999089631971 0.0 0.0 0.0 34.54679606040008" Properties=species:S:1:pos:R:3:initial_magmoms:R:1 pbc="T T T"
Si      -2.12069736       0.74373624       0.68243779       0.00000000
Si       1.37607333       1.87924698      -0.32529281       0.00000000
Si       0.40200462      -0.81505386      -2.21244715       0.00000000
Si       1.05560829      -0.92559780       2.07208344       0.00000000
Si       3.32505683       0.48550716      -0.40374863       0.00000000
Si      -2.70060507      -1.18793196       1.89599832       0.00000000
Si       0.82406223       3.03837822       1.64304654       0.00000000
Si      -1.50431634       2.70730026       1.86635715       0.00000000
Si       3.24655532      -1.13940405       1.26956092       0.00000000
Si       2.79632089      -0.56231451      -2.45928415       0.00000000
