10
Lattice="16.28999089631971 0.0 0.0 0.0 16.28999089631971 0.0 0.0 0.0 34.54679606040008" Properties=species:S:1:pos:R:3:initial_magmoms:R:1 pbc="T T T"
Si      -1.35605453      -1.35692442       1.35651525       0.00000000
Si       1.35656604       1.35705474       1.35741347       0.00000000
Si       1.35744570      -1.35729909      -1.35741347       0.00000000
Si      -1.35773892       1.35754344      -1.35703345       0.00000000
Si       2.71461447       0.00008145      -2.71430874       0.00000000
Si      -2.71469142      -2.71482624      -0.00069094       0.00000000
Si       2.71476108      -2.71485882       0.00024183       0.00000000
Si      -0.00293220      -2.71443528      -2.71544878       0.00000000
Si      -2.71527498      -0.00063531      -2.71489603       0.00000000
Si       2.71489140       2.71551042       0.00003455       0.00000000
