10
Lattice="16.28999089631971 0.0 0.0 0.0 16.28999089631971 0.0 0.0 0.0 34.54679606040008" Properties=species:S:1:pos:R:3:initial_magmoms:R:1 pbc="T T T"
Si       1.35605453       1.35692442      -1.35651525       0.00000000
Si       1.35393683      -1.35773892       1.36045359       0.00000000
Si      -1.35863688      -1.35790182      -1.35720619       0.00000000
Si      -1.35823969       1.35812988       1.36110998       0.00000000
Si       2.70040307       0.01073511       2.71828162       0.00000000
Si       2.71262057       2.71397916       0.00089822       0.00000000
Si       2.71350023      -0.00037467      -2.71392872       0.00000000
Si      -0.00168439       2.71446786      -2.71354871       0.00000000
Si       2.71400522      -2.71453302       0.00082912       0.00000000
Si      -0.00158176      -2.71547784      -2.71379053       0.00000000
