10
Lattice="16.28999089631971 0.0 0.0 0.0 16.28999089631971 0.0 0.0 0.0 34.54679606040008" Properties=species:S:1:pos:R:3:initial_magmoms:R:1 pbc="T T T"
Si      -1.34459518      -1.36617714      -1.38840196       0.00000000
Si       1.36704377       1.35081567      -1.38619097       0.00000000
Si       1.33615793      -1.38183183       1.39772960       0.00000000
Si      -1.40661285       1.44073647       1.68446817       0.00000000
Si      -0.22852915      -2.69333973       2.64815159       0.00000000
Si      -2.69498895       2.71490769       0.00359287       0.00000000
Si       2.71105022       2.71459818       0.00038001       0.00000000
Si       2.71404758      -2.71357191      -0.03123032       0.00000000
Si      -2.70735306      -2.72675052      -0.01602972       0.00000000
Si      -2.70337830      -0.01104462      -2.74785369       0.00000000
