10
Lattice="16.28999089631971 0.0 0.0 0.0 16.28999089631971 0.0 0.0 0.0 34.54679606040008" Properties=species:S:1:pos:R:3:initial_magmoms:R:1 pbc="T T T"
Si       0.34579598      -2.28817485      -0.37573116       0.00000000
Si      -1.34480207       0.65951694       1.80441471       0.00000000
Si       1.99006133       1.08004329       0.80103701       0.00000000
Si      -1.01655857       0.49906044      -2.19596832       0.00000000
Si      -3.22779575       0.78115437      -1.06082906       0.00000000
Si       0.34504501      -1.33674111      -3.21247381       0.00000000
Si      -1.09970273       3.01264002       1.70464351       0.00000000
Si       2.30090711      -2.23303320      -1.81674793       0.00000000
Si      -0.28859105      -0.43456833       3.69954936       0.00000000
Si       3.28482311       1.48064697      -1.11278747       0.00000000
