10
Lattice="16.28999089631971 0.0 0.0 0.0 16.28999089631971 0.0 0.0 0.0 34.54679606040008" Properties=species:S:1:pos:R:3:initial_magmoms:R:1 pbc="T T T"
Si       0.96477525      -1.32530553      -1.81571152       0.00000000
Si       2.45125404       0.87232950       0.30297557       0.00000000
Si      -1.78685662       1.40871033      -1.37834884       0.00000000
Si      -0.90736929      -1.44779004       2.19721200       0.00000000
Si       2.44042119      -2.91226104      -0.76186092       0.00000000
Si       2.19348108       3.09013222       1.14695427       0.00000000
Si      -3.08059884      -2.04387372       1.42149781       0.00000000
Si      -2.80315551       2.79262728       0.37065278       0.00000000
Si       2.29045545      -0.04422735      -3.41325991       0.00000000
Si       3.30146172      -0.28986426       2.53255794       0.00000000
