10
Lattice="10.86 0.0 0.0 0.0 10.86 0.0 0.0 0.0 10.86" Properties=species:S:1:pos:R:3:initial_magmoms:R:1 pbc="T T T"
Si      -1.16420286      -1.31775240       1.11774378       0.00000000
Si      -1.16420286       1.39724760      -1.59725622       0.00000000
Si       1.83206028       1.40306856       1.06005546       0.00000000
Si       1.55079714      -1.31775240      -1.59725622       0.00000000
Si      -2.52170286       0.03974760       2.47524378       0.00000000
Si      -0.11217294       2.71355562       2.28869070       0.00000000
Si       0.19329714      -2.67525240       2.47524378       0.00000000
Si      -2.52170286      -2.67525240      -0.23975622       0.00000000
Si       0.32061978       2.59115256      -2.63213820       0.00000000
Si      -2.52170286       2.75474760      -0.23975622       0.00000000
