10
Lattice="10.86 0.0 0.0 0.0 10.86 0.0 0.0 0.0 10.86" Properties=species:S:1:pos:R:3:initial_magmoms:R:1 pbc="T T T"
Si      -1.03479510       1.35966114      -1.39366380       0.00000000
Si      -1.31605824      -1.36115982       1.37902452       0.00000000
Si       1.39894176      -1.36115982      -1.33597548       0.00000000
Si       1.39894176       1.35384018       1.37902452       0.00000000
Si      -2.86685538      -0.04340742      -2.45371926       0.00000000
Si      -2.67355824      -2.71865982       0.02152452       0.00000000
Si       2.57925000       2.81607402      -0.11790702       0.00000000
Si      -2.67355824      -0.00365982       2.73652452       0.00000000
Si       0.04144176      -2.71865982      -2.69347548       0.00000000
Si       0.04144176       2.71134018       2.73652452       0.00000000
