10
Lattice="10.86 0.0 0.0 0.0 10.86 0.0 0.0 0.0 10.86" Properties=species:S:1:pos:R:3:initial_magmoms:R:1 pbc="T T T"
Si      -1.29656454       1.41650238      -1.26166050       0.00000000
Si      -1.29656454      -1.29849762       1.45333950       0.00000000
Si       1.41843546       1.41650238       1.45333950       0.00000000
Si      -2.50539114      -2.64719016       0.05041212       0.00000000
Si       2.54465004       0.05714532      -2.73554712       0.00000000
Si       0.06093546       2.77400238      -2.61916050       0.00000000
Si      -2.65406454       2.77400238       0.09583950       0.00000000
Si      -2.66613000      -0.23224110      -2.76111156       0.00000000
Si      -2.65406454       0.05900238       2.81083950       0.00000000
Si       0.06093546      -2.65599762       2.81083950       0.00000000
