10
Lattice="10.86 0.0 0.0 0.0 10.86 0.0 0.0 0.0 10.86" Properties=species:S:1:pos:R:3:initial_magmoms:R:1 pbc="T T T"
Si      -1.12621458       1.35935706      -1.24111338       0.00000000
Si       1.58878542      -1.35564294      -1.24111338       0.00000000
Si       1.58878542       1.35935706       1.47388662       0.00000000
Si      -2.58384378      -0.46740354      -2.43536586       0.00000000
Si      -2.48371458       2.71685706       0.11638662       0.00000000
Si      -2.54465004      -0.05714532       2.73554712       0.00000000
Si       0.23128542       2.71685706      -2.59861338       0.00000000
Si       0.25574214      -2.69370354      -2.73771912       0.00000000
Si       2.94628542       0.00185706      -2.59861338       0.00000000
Si       0.23128542       2.71685706       2.83138662       0.00000000
