10
Lattice="16.290000149 0.0 0.0 0.0 16.290000149 0.0 0.0 0.0 29.1751946751" Properties=species:S:1:pos:R:3:initial_magmoms:R:1 pbc="T T T"
Si       1.72056611      -0.75647503      -1.38013258       0.00000000
Si       1.36099693       1.34944732       1.33543619       0.00000000
Si      -1.43530540       1.18631926      -1.44554337       0.00000000
Si      -1.19079412      -1.69339439       1.18938516       0.00000000
Si      -1.66450081      -0.66230254      -2.88641871       0.00000000
Si       0.64620802      -0.84636325      -3.48121340       0.00000000
Si       2.56590308      -2.60131754      -0.25487450       0.00000000
Si      -2.65223292      -0.41228361       2.53199844       0.00000000
Si      -0.08343738       2.53617383       2.69933511       0.00000000
Si       2.63808407      -0.14714757       2.67587913       0.00000000
