10
Lattice="16.290000149 0.0 0.0 0.0 16.290000149 0.0 0.0 0.0 29.1751946751" Properties=species:S:1:pos:R:3:initial_magmoms:R:1 pbc="T T T"
Si       1.31268079       1.35971002       1.34516320       0.00000000
Si      -1.37485972       1.26410401      -1.41789112       0.00000000
Si       1.28682856      -1.44995662      -1.32713584       0.00000000
Si      -1.42695514      -1.39087279       1.28121117       0.00000000
Si      -2.18422838      -0.59528548      -2.59959941       0.00000000
Si      -0.55123732      -2.33098499      -2.51515852       0.00000000
Si       2.62163117       2.64934046      -0.12516450       0.00000000
Si       2.62990649      -0.03181437       2.68672617       0.00000000
Si      -0.10611306       2.69039126       2.64739801       0.00000000
Si       2.53713494      -2.82018999       0.08531410       0.00000000
