10
Lattice="16.290000149 0.0 0.0 0.0 16.290000149 0.0 0.0 0.0 29.1751946751" Properties=species:S:1:pos:R:3:initial_magmoms:R:1 pbc="T T T"
Si      -1.37196010      -1.40618539      -1.31216897       0.00000000
Si      -1.34633593       1.27943290       1.46039354       0.00000000
Si       1.33946155      -1.33659451       1.42167806       0.00000000
Si       1.34133490       1.41806080      -1.36017092       0.00000000
Si       2.67169034      -0.02181231      -2.67473517       0.00000000
Si       0.05968656      -2.77811292      -2.59624514       0.00000000
Si      -2.68091048      -2.69581583       0.15815873       0.00000000
Si      -2.77959531       2.59919984       0.17747271       0.00000000
Si      -2.72086985      -0.04365720      -2.68826371       0.00000000
Si       2.68822469       2.75025702       0.02932107       0.00000000
