10
Lattice="16.290000149 0.0 0.0 0.0 16.290000149 0.0 0.0 0.0 29.1751946751" Properties=species:S:1:pos:R:3:initial_magmoms:R:1 pbc="T T T"
H       -0.16099407       0.78553639       1.28058682       0.00000000
Si       1.08473482       1.15952221      -1.70809095       0.00000000
Si      -2.20874483       0.08272062      -0.80937825       0.00000000
Si       0.84843208      -2.08567388       0.77897770       0.00000000
H       -1.43672914      -1.92114488       1.72947637       0.00000000
H       -1.56164086       2.82638019       0.82752522       0.00000000
Si      -2.72629443      -1.92283904       0.92526212       0.00000000
Si       0.71954560      -1.67104451       3.14330630       0.00000000
Si       1.95765077      -0.62056756      -2.99594239       0.00000000
Si      -2.75198376       2.45785151      -0.07174180       0.00000000
