10
Lattice="16.290000149 0.0 0.0 0.0 16.290000149 0.0 0.0 0.0 29.1751946751" Properties=species:S:1:pos:R:3:initial_magmoms:R:1 pbc="T T T"
Si       1.37992591       1.31787730      -1.36359025       0.00000000
Si      -1.37344249      -1.32669019      -1.36359025       0.00000000
Si       1.35583300      -1.37033110       1.33905391       0.00000000
Si      -1.36930483       1.37894851       1.32248240       0.00000000
Si      -0.05333346       2.63764424      -2.64651108       0.00000000
Si       0.04535136      -2.65737143      -2.66582506       0.00000000
Si       2.72613152      -0.00900837       2.66681702       0.00000000
Si      -2.72976420       0.01650177       2.66623352       0.00000000
Si      -0.01480761       2.73227285       2.68309678       0.00000000
Si      -0.00022806      -2.72593604       2.69683829       0.00000000
