10
Lattice="16.290000149 0.0 0.0 0.0 16.290000149 0.0 0.0 0.0 29.1751946751" Properties=species:S:1:pos:R:3:initial_magmoms:R:1 pbc="T T T"
Si      -1.34112313       1.35567010       1.34340072       0.00000000
Si       1.39852909      -1.42501663       1.22454127       0.00000000
Si       1.39444030       1.23150772      -1.42652114       0.00000000
Si      -1.50591277      -1.28285380      -1.28551743       0.00000000
H        0.51098472       2.08292087      -2.31566438       0.00000000
Si       2.70721883       0.02125845       2.59458216       0.00000000
Si      -2.55663407       2.77022856      -0.10710214       0.00000000
Si      -2.66194892      -0.04748535       2.68664740       0.00000000
Si       2.42589053      -0.25443351      -2.89826384       0.00000000
Si       0.07253937      -2.80746750       2.60081981       0.00000000
