10
Lattice="16.290000149 0.0 0.0 0.0 16.290000149 0.0 0.0 0.0 29.1751946751" Properties=species:S:1:pos:R:3:initial_magmoms:R:1 pbc="T T T"
H       -0.17866872       1.38785426       0.61046177       0.00000000
Si       0.83067598      -1.24242691       1.71703606       0.00000000
Si       1.89327269       0.01513015      -1.34427627       0.00000000
Si      -1.90451279      -0.54685693      -1.28111197       0.00000000
Si       0.63092800       1.12255531      -2.93881736       0.00000000
Si      -2.63353916       1.64331404      -0.87922367       0.00000000
Si      -0.69636493       2.67214158      -1.77992028       0.00000000
Si       1.86953816       0.61052151       2.67095114       0.00000000
Si       2.32674959      -2.27270426      -1.03011777       0.00000000
Si      -1.00168840      -2.26405427       2.65989666       0.00000000
