10
Lattice="16.290000149 0.0 0.0 0.0 16.290000149 0.0 0.0 0.0 29.1751946751" Properties=species:S:1:pos:R:3:initial_magmoms:R:1 pbc="T T T"
Si       1.34608995       1.32905224      -1.38087363       0.00000000
Si      -1.33146479      -1.35948196      -1.37905602       0.00000000
Si      -1.35451514       1.38849445       1.33021383       0.00000000
Si       1.36944981      -1.34873056       1.36344437       0.00000000
Si      -2.62650351      -2.67397094       0.09041393       0.00000000
Si       2.70834122       2.69737967      -0.01800110       0.00000000
Si      -2.69549166       0.03560994       2.71562712       0.00000000
Si      -0.03927845       2.66815541      -2.75295970       0.00000000
Si       0.00964857       2.71886618       2.70915023       0.00000000
Si       2.72930645       0.00605988       2.71705670       0.00000000
