10
Lattice="16.290000149 0.0 0.0 0.0 16.290000149 0.0 0.0 0.0 29.1751946751" Properties=species:S:1:pos:R:3:initial_magmoms:R:1 pbc="T T T"
Si       1.36516717       1.35547462       1.34675616       0.00000000
Si       1.37000530      -1.36335898      -1.33625309       0.00000000
Si      -1.34835589       1.36070371      -1.36542829       0.00000000
Si      -1.34829073      -1.34773687       1.37832372       0.00000000
Si      -0.00983916       2.72028341       2.67842875       0.00000000
Si       2.72148887       0.01228266      -2.68306760       0.00000000
Si       2.71603172      -0.02088378       2.68901934       0.00000000
Si      -2.69638598      -2.70946685       0.02794984       0.00000000
Si       0.02285487      -2.71999019      -2.69885138       0.00000000
Si      -2.70821252       0.00591327      -2.71904062       0.00000000
