10
Lattice="16.290000149 0.0 0.0 0.0 16.290000149 0.0 0.0 0.0 29.1751946751" Properties=species:S:1:pos:R:3:initial_magmoms:R:1 pbc="T T T"
H        1.30341178       0.55286632       0.90717350       0.00000000
Si       1.22140792      -1.85512151      -0.66589464       0.00000000
Si      -1.01773405       1.33138171      -1.62622535       0.00000000
Si      -1.78489532      -0.59248360       1.43769524       0.00000000
H        0.96440059       1.25055073      -2.68513904       0.00000000
Si      -2.08803593       2.44221311       0.24060783       0.00000000
Si      -1.79735717      -0.70573168      -2.63600801       0.00000000
Si       2.48732012       1.08242164       1.96401576       0.00000000
Si      -0.31284945      -2.57357567      -2.27986641       0.00000000
Si      -2.85167856      -2.35234118       0.36929961       0.00000000
