10
Lattice="16.290000149 0.0 0.0 0.0 16.290000149 0.0 0.0 0.0 29.1751946751" Properties=species:S:1:pos:R:3:initial_magmoms:R:1 pbc="T T T"
Si      -1.26234469       1.10742516      -1.59454109       0.00000000
Si      -1.89327269      -0.01513015       1.34427627       0.00000000
Si       1.56910168       1.68633919       0.45367428       0.00000000
Si       0.43347690      -2.28783441       0.31415850       0.00000000
H        1.85937320       0.61653578      -2.35566357       0.00000000
H       -2.07194141       1.37272410       1.95473804       0.00000000
Si       2.04307553      -2.45145117      -1.36592426       0.00000000
Si      -1.06259671      -1.25755706       3.06131233       0.00000000
Si       0.84058030       2.32334335       2.63277686       0.00000000
Si      -2.58963761       2.65701143      -0.43564401       0.00000000
