10
Lattice="16.290000149 0.0 0.0 0.0 16.290000149 0.0 0.0 0.0 29.1751946751" Properties=species:S:1:pos:R:3:initial_magmoms:R:1 pbc="T T T"
Si       1.71773165      -1.63111771      -0.10689791       0.00000000
Si      -2.05692203      -1.01229319      -0.72392411       0.00000000
Si       1.39466836       1.73874575      -0.91557596       0.00000000
Si      -1.00652653       1.23890338       1.84273447       0.00000000
H        0.79011388      -1.46862496      -2.63737925       0.00000000
H       -0.61053292       0.57221884      -3.09044085       0.00000000
Si      -2.36202884       2.64666890       0.52868370       0.00000000
Si       2.15792003      -1.88058278       2.17619323       0.00000000
Si      -3.46896368       0.93885787      -0.72056896       0.00000000
Si       3.58668336      -0.73350613      -1.38217485       0.00000000
