10
Lattice="16.290000149 0.0 0.0 0.0 16.290000149 0.0 0.0 0.0 29.1751946751" Properties=species:S:1:pos:R:3:initial_magmoms:R:1 pbc="T T T"
Si       1.31113324      -1.42534243       1.29727503       0.00000000
Si      -1.35125551      -1.38725641      -1.32108199       0.00000000
Si       1.37619550       1.33043689      -1.35431254       0.00000000
Si      -1.29935557       1.35514882       1.41873137       0.00000000
Si       2.66118329      -0.08420301       2.61179260       0.00000000
Si       0.00889434       2.68793147      -2.68146297       0.00000000
Si      -2.66951726       2.69987204       0.06368945       0.00000000
Si      -2.68993840      -0.02731833      -2.68362193       0.00000000
Si       0.03774393      -2.73758339      -2.65441756       0.00000000
Si      -2.63060533      -0.04241916       2.76184063       0.00000000
