10
Lattice="16.290000149 0.0 0.0 0.0 16.290000149 0.0 0.0 0.0 29.1751946751" Properties=species:S:1:pos:R:3:initial_magmoms:R:1 pbc="T T T"
Si      -0.83067598       1.24242691      -1.71703606       0.00000000
Si      -1.83236438      -1.02162736       0.94286060       0.00000000
Si       1.03886218       1.85294842       0.95391508       0.00000000
Si       1.74610883      -1.54321687      -0.44906926       0.00000000
H       -1.00934470       2.63028116      -1.10657429       0.00000000
Si      -0.42656994      -2.38581713       2.19760695       0.00000000
Si       1.49607361      -1.03027735      -2.74715384       0.00000000
Si       2.45558720       0.51058057       2.20944625       0.00000000
Si       1.06259671       1.25755706      -3.06131233       0.00000000
Si       0.99554707      -0.92672182       3.42348736       0.00000000
