10
Lattice="16.290000149 0.0 0.0 0.0 16.290000149 0.0 0.0 0.0 29.1751946751" Properties=species:S:1:pos:R:3:initial_magmoms:R:1 pbc="T T T"
Si      -1.14961789      -0.13141143       2.05830998       0.00000000
Si      -1.52624269       0.99355969      -1.50692798       0.00000000
Si       0.99486289      -1.77088592      -1.26754551       0.00000000
Si       1.52964730       1.83472643       0.43220133       0.00000000
H       -2.05703606      -2.81132823      -0.91230834       0.00000000
H        0.70330447      -2.97802380       1.91707287       0.00000000
Si       2.29620584      -0.48518136      -2.77173102       0.00000000
Si      -2.56038077       2.61219601      -0.18815083       0.00000000
Si      -0.23100849       2.43310651      -2.78025018       0.00000000
Si       0.41244651       0.65353852       3.65162572       0.00000000
