10
Lattice="16.290000149 0.0 0.0 0.0 16.290000149 0.0 0.0 0.0 29.1751946751" Properties=species:S:1:pos:R:3:initial_magmoms:R:1 pbc="T T T"
Si       1.35382933       1.39758427      -1.31996750       0.00000000
Si      -1.35179308       1.36920709       1.35874717       0.00000000
Si       1.37634211      -1.34737849       1.35933067       0.00000000
Si      -1.36225126      -1.36832743      -1.36287254       0.00000000
Si       2.73515619       0.04171869      -2.64541118       0.00000000
Si      -2.70834122      -2.69737967       0.01800110       0.00000000
Si       2.69071706       2.72248256       0.08466641       0.00000000
Si      -2.69869265       0.02148651       2.72715132       0.00000000
Si       0.02096523      -2.69131979       2.73505780       0.00000000
Si      -2.71732189       2.71710686      -0.01327471       0.00000000
