10
Lattice="16.290000149 0.0 0.0 0.0 16.290000149 0.0 0.0 0.0 29.1751946751" Properties=species:S:1:pos:R:3:initial_magmoms:R:1 pbc="T T T"
Si      -1.32734179       1.35897697       1.36624519       0.00000000
Si       1.37735209      -1.33968961       1.35909727       0.00000000
Si       1.41136561       1.40419801      -1.25772805       0.00000000
Si      -1.42011334      -1.42939864      -1.23516688       0.00000000
Si       0.07745895      -2.66508312      -2.51534816       0.00000000
Si       2.66851379       0.00351864      -2.62359397       0.00000000
Si      -2.67041972      -0.05916528      -2.64761682       0.00000000
Si       0.05108544       2.72297126       2.67122247       0.00000000
Si      -2.64456749       2.75050137       0.02468221       0.00000000
Si       0.09602955       2.66820428      -2.72972166       0.00000000
