10
Lattice="16.290000149 0.0 0.0 0.0 16.290000149 0.0 0.0 0.0 29.1751946751" Properties=species:S:1:pos:R:3:initial_magmoms:R:1 pbc="T T T"
Si       1.24667371      -1.38903202       1.36843333       0.00000000
Si      -1.36159966       1.35389449       1.32726713       0.00000000
Si      -1.29401245      -1.43726671      -1.31183345       0.00000000
Si       1.45761292       1.29790576      -1.30252657       0.00000000
Si       2.68205078      -0.05869287       2.58358019       0.00000000
Si      -2.64811871      -0.07092666      -2.65027468       0.00000000
Si       0.09459603       2.62404209      -2.68333018       0.00000000
Si       0.02599884       2.69964398       2.62635102       0.00000000
Si      -2.60288138      -2.78390890       0.11115749       0.00000000
Si       0.13165578      -2.79906837      -2.61074230       0.00000000
