10
Lattice="16.290000149 0.0 0.0 0.0 16.290000149 0.0 0.0 0.0 29.1751946751" Properties=species:S:1:pos:R:3:initial_magmoms:R:1 pbc="T T T"
Si      -1.35550232       1.40776552      -1.31405077       0.00000000
Si       1.17441127       1.46883673       1.44745726       0.00000000
Si      -1.48781295      -1.20093139       1.43337148       0.00000000
Si       1.00652653      -1.23890338      -1.84273447       0.00000000
Si      -2.46243715      -0.30004551      -2.56330343       0.00000000
Si      -1.05039550      -2.25119657      -2.56665858       0.00000000
Si       2.40119489       0.49984236      -2.75831043       0.00000000
Si      -0.12849552      -2.54037665       2.81360326       0.00000000
Si       2.54736506       0.11618028       2.80858221       0.00000000
Si       2.47337588       2.95401234       0.17244320       0.00000000
