10
Lattice="16.290000149 0.0 0.0 0.0 16.290000149 0.0 0.0 0.0 29.1751946751" Properties=species:S:1:pos:R:3:initial_magmoms:R:1 pbc="T T T"
Si       1.37484343      -1.34659331       1.33619474       0.00000000
Si       1.36459702       1.34744691      -1.35022801       0.00000000
Si      -1.34996860      -1.37000204      -1.35121997       0.00000000
Si      -1.35014779       1.34967864       1.37333476       0.00000000
Si       0.01966203      -2.70170956       2.66988042       0.00000000
Si       0.00190593       2.71313536      -2.68618935       0.00000000
Si      -2.73228915      -0.01064714      -2.67352731       0.00000000
Si      -2.71894763       2.69410864       0.00907349       0.00000000
Si       2.72460026       2.69122531       0.01304131       0.00000000
Si       2.72738585      -0.01509920      -2.69593386       0.00000000
