10
Lattice="16.290000149 0.0 0.0 0.0 16.290000149 0.0 0.0 0.0 29.1751946751" Properties=species:S:1:pos:R:3:initial_magmoms:R:1 pbc="T T T"
Si       1.35931743      -1.33944526       1.38023178       0.00000000
Si      -1.50555602      -1.38520387      -1.16879506       0.00000000
Si      -1.40024117       1.35000118       1.36861130       0.00000000
Si       1.48781295       1.20093139      -1.43337148       0.00000000
Si      -2.64570942       0.11723913      -2.55133576       0.00000000
Si      -0.24285132      -2.81499348      -2.49429826       0.00000000
Si       2.66222423       2.66976812       0.01408578       0.00000000
Si       0.13231064       2.60869691      -2.74742225       0.00000000
Si      -0.01495096      -2.69996978       2.74232826       0.00000000
Si       2.67949163       0.00206883       2.77445015       0.00000000
