10
Lattice="16.290000149 0.0 0.0 0.0 16.290000149 0.0 0.0 0.0 29.1751946751" Properties=species:S:1:pos:R:3:initial_magmoms:R:1 pbc="T T T"
Si      -1.35518140      -1.35511624       1.33368567       0.00000000
Si      -1.37484343       1.34659331      -1.33619474       0.00000000
Si       1.30741912       1.31415667       1.44580595       0.00000000
Si       1.35270532      -1.38512242      -1.33727422       0.00000000
Si       0.03958470      -2.80536609       2.52770969       0.00000000
Si       2.67406868       2.67346595       0.06929109       0.00000000
Si      -0.01024641       2.69404022      -2.68642275       0.00000000
Si       2.71256195      -0.02161683      -2.67953740       0.00000000
Si      -2.72481203      -0.02340873      -2.68741471       0.00000000
Si      -2.72499122       2.69627195       0.03714002       0.00000000
