10
Lattice="16.290000149 0.0 0.0 0.0 16.290000149 0.0 0.0 0.0 29.1751946751" Properties=species:S:1:pos:R:3:initial_magmoms:R:1 pbc="T T T"
Si      -1.30741912      -1.31415667      -1.44580595       0.00000000
Si      -1.32237334       1.39483778       1.36478643       0.00000000
Si       1.26029215      -1.39140385       1.43177268       0.00000000
Si       1.36664956       1.35930929      -1.37651486       0.00000000
Si      -2.66260052      -2.66927291      -0.11212027       0.00000000
Si       2.66098781       0.02463700       2.68998212       0.00000000
Si       2.68995143      -2.67378524       0.01960573       0.00000000
Si      -2.67149486       2.72806026      -0.04157465       0.00000000
Si       0.07674219       2.76515259       2.68079194       0.00000000
Si      -2.68226255       0.03243665      -2.78200069       0.00000000
