10
Lattice="16.290000149 0.0 0.0 0.0 16.290000149 0.0 0.0 0.0 29.1751946751" Properties=species:S:1:pos:R:3:initial_magmoms:R:1 pbc="T T T"
Si      -1.60959862       0.16361676       1.68008276       0.00000000
Si       0.83808793       1.93168777      -1.01538430       0.00000000
Si       1.77220541      -1.16062993       1.02790046       0.00000000
Si      -1.56206440      -0.78494995      -1.59331573       0.00000000
H       -0.18370233       3.06798695      -0.98973930       0.00000000
Si      -2.04307553       2.45145117       1.36592426       0.00000000
Si       1.11720079       1.18118791      -3.21942438       0.00000000
Si       0.62201737      -2.80207551       2.20978759       0.00000000
Si      -2.47544471      -2.62238051      -0.42432403       0.00000000
Si      -0.41244651      -0.65353852      -3.65162572       0.00000000
