10
Lattice="16.290000149 0.0 0.0 0.0 16.290000149 0.0 0.0 0.0 29.1751946751" Properties=species:S:1:pos:R:3:initial_magmoms:R:1 pbc="T T T"
H       -0.59904847       1.29391960      -0.48643802       0.00000000
Si       2.29767194       0.08694462      -0.32877527       0.00000000
Si      -0.87943195      -1.67693660      -1.36119788       0.00000000
Si      -0.93524149      -0.53158995       2.13539085       0.00000000
H       -2.18991685       0.05172564       1.42054023       0.00000000
H        1.41345073       1.66717237      -1.85323754       0.00000000
Si       2.32883471      -1.97952335       0.96779956       0.00000000
Si      -2.26465048      -0.20795977      -2.50848324       0.00000000
Si       1.25204941      -1.28586256       3.01441029       0.00000000
Si      -2.16478626       2.78774519       0.23801124       0.00000000
