10
Lattice="16.290000149 0.0 0.0 0.0 16.290000149 0.0 0.0 0.0 29.1751946751" Properties=species:S:1:pos:R:3:initial_magmoms:R:1 pbc="T T T"
Si       1.41481909       1.32598972      -1.23924557       0.00000000
Si      -1.42584742      -1.38950443      -1.17975735       0.00000000
Si       1.29502243      -1.29419164       1.42625857       0.00000000
Si      -1.08295921       1.42032511       1.49794202       0.00000000
H        2.13887702      -0.35986239       2.23633702       0.00000000
Si      -0.53646228      -2.11903580       2.58982368       0.00000000
Si       1.04466142       2.39000366       2.17868684       0.00000000
Si      -2.13807881      -0.34279047       2.67939153       0.00000000
Si       2.64458378       2.46404171       0.38613370       0.00000000
Si       0.00830790      -2.71168229      -2.46183210       0.00000000
