10
Lattice="16.290000149 0.0 0.0 0.0 16.290000149 0.0 0.0 0.0 29.1751946751" Properties=species:S:1:pos:R:3:initial_magmoms:R:1 pbc="T T T"
Si      -1.34809525      -1.36172998      -1.35037389       0.00000000
Si       1.34322454      -1.38272779       1.34395534       0.00000000
Si      -1.38899944       1.35032698       1.33333557       0.00000000
Si       1.34829073       1.34773687      -1.37832372       0.00000000
Si       2.71103069      -0.02463048       2.67262288       0.00000000
Si      -0.03774393       2.73758339       2.65441756       0.00000000
Si      -2.69107870      -0.00361638      -2.71384743       0.00000000
Si       2.71345790       2.70321149      -0.03156756       0.00000000
Si       0.01102833      -2.71684622      -2.70465725       0.00000000
Si      -0.03168405      -2.71959923       2.70567838       0.00000000
