10
Lattice="16.290000149 0.0 0.0 0.0 16.290000149 0.0 0.0 0.0 29.1751946751" Properties=species:S:1:pos:R:3:initial_magmoms:R:1 pbc="T T T"
Si      -1.36969416       1.23903370      -1.44560172       0.00000000
Si       1.19765710      -1.39629736      -1.48075783       0.00000000
Si      -1.36043819      -1.43047378       1.30529821       0.00000000
Si       1.43694091       1.40792842       1.31483850       0.00000000
Si      -0.06895557       2.73768114       2.56327425       0.00000000
Si       2.55349010      -2.75090862      -0.17863972       0.00000000
Si       0.07257195      -2.64455120       2.68971955       0.00000000
Si      -2.77544136       2.55725309      -0.13438095       0.00000000
Si       2.73821870       2.64777662      -0.18345362       0.00000000
Si      -0.03844440       2.63660168      -2.78871098       0.00000000
