10
Lattice="16.290000149 0.0 0.0 0.0 16.290000149 0.0 0.0 0.0 29.1751946751" Properties=species:S:1:pos:R:3:initial_magmoms:R:1 pbc="T T T"
Si      -1.16494189       0.15789897      -2.01941945       0.00000000
Si       0.22919542       1.84862180       1.44087534       0.00000000
Si       2.31070883      -0.18406071      -0.59479469       0.00000000
Si      -1.15849105      -2.05379435       0.59920015       0.00000000
H       -2.71974096       0.59266279       0.01234111       0.00000000
H       -2.20026914      -0.94727980      -1.80541940       0.00000000
Si      -3.17092509      -0.69138019       0.67587256       0.00000000
Si       1.66450081       0.66230254       2.88641871       0.00000000
Si       1.88676157      -1.99541099      -2.08057066       0.00000000
Si       0.31994701      -0.92418058      -3.44480276       0.00000000
