10
Lattice="16.290000149 0.0 0.0 0.0 16.290000149 0.0 0.0 0.0 29.1751946751" Properties=species:S:1:pos:R:3:initial_magmoms:R:1 pbc="T T T"
Si      -2.05501610       0.61429591      -0.89238168       0.00000000
Si       1.03413808      -1.61863632      -1.31877715       0.00000000
Si      -0.52514073      -1.25577656       1.93034758       0.00000000
Si       1.51151653       1.85110113       0.07871468       0.00000000
Si       2.32937228      -0.17908949      -2.59209935       0.00000000
Si      -3.29589057      -1.17378899      -0.04758474       0.00000000
Si       2.56038077      -2.61219601       0.18815083       0.00000000
Si       0.78767038       3.17608088      -1.71841897       0.00000000
Si      -2.14371515       0.27514788       3.00487000       0.00000000
Si       0.87894325       2.92857061       2.12089078       0.00000000
