10
Lattice="16.290000149 0.0 0.0 0.0 16.290000149 0.0 0.0 0.0 29.1751946751" Properties=species:S:1:pos:R:3:initial_magmoms:R:1 pbc="T T T"
Si      -1.35537688      -1.34394130       1.37572713       0.00000000
Si       1.33475374       1.35140212       1.39419503       0.00000000
Si      -1.37634211       1.34737849      -1.35933067       0.00000000
Si       1.36283770      -1.37350765      -1.34979038       0.00000000
Si       2.71446788      -2.69236235       0.05808781       0.00000000
Si       2.69879690       2.71293662       0.06479811       0.00000000
Si      -2.71523351      -2.69873174       0.02211480       0.00000000
Si      -0.02251278       2.74496277      -2.67929817       0.00000000
Si       2.72984564      -0.02314809      -2.70033348       0.00000000
Si      -2.72813520       2.71658558      -0.00058350       0.00000000
