10
Lattice="16.290000149 0.0 0.0 0.0 16.290000149 0.0 0.0 0.0 29.1751946751" Properties=species:S:1:pos:R:3:initial_magmoms:R:1 pbc="T T T"
Si      -1.19034289      -0.36852867      -0.89926703       0.00000000
H        1.40064679      -2.04084380       0.45306160       0.00000000
Si      -0.33844104       1.11013093      -2.53724998       0.00000000
Si       0.08550621       2.92148121      -1.05147402       0.00000000
Si       2.00520128       1.16652691       2.17486489       0.00000000
Si      -1.96664936      -2.49321710       0.27296312       0.00000000
Si      -1.44638911      -1.58451202       2.36651674       0.00000000
Si       0.61053292      -0.57221884       3.09044085       0.00000000
Si      -0.64710397      -2.74365957      -1.63690347       0.00000000
H        3.12056130       0.62716501      -0.75129044       0.00000000
