10
Lattice="16.290000149 0.0 0.0 0.0 16.290000149 0.0 0.0 0.0 29.1751946751" Properties=species:S:1:pos:R:3:initial_magmoms:R:1 pbc="T T T"
Si      -1.34517934      -1.33014530       1.34780939       0.00000000
Si       1.31634604      -1.32330024      -1.39959244       0.00000000
Si      -1.20309796       1.39646026      -1.44228742       0.00000000
Si       1.42837237       1.40367673       1.24307044       0.00000000
Si       2.30409020       0.46356453      -2.55329925       0.00000000
Si       0.67109914       2.19926405      -2.63774015       0.00000000
Si      -2.64608246      -2.65779497      -0.07712171       0.00000000
Si      -2.70210377       0.06476904       2.63653609       0.00000000
Si       2.69899238      -2.64781217      -0.03417582       0.00000000
Si       0.05058045       2.75266794       2.59347350       0.00000000
