10
Lattice="16.290000149 0.0 0.0 0.0 16.290000149 0.0 0.0 0.0 29.1751946751" Properties=species:S:1:pos:R:3:initial_magmoms:R:1 pbc="T T T"
H        0.53564778       0.25122438      -1.38669700       0.00000000
Si       1.69023413      -0.93011014       1.31110407       0.00000000
Si      -0.85014253       1.87998005       1.10754874       0.00000000
Si      -1.79685218      -1.59770692      -0.11792614       0.00000000
H        1.79968664       2.01311822      -0.96111844       0.00000000
H       -1.04427046       1.08046684      -2.56479136       0.00000000
H       -0.13261689      -0.67754998      -3.00352794       0.00000000
Si      -2.15642135       0.50821542       2.59764263       0.00000000
Si       2.66090636      -2.38589858      -0.20022936       0.00000000
Si       0.42780798      -2.41456898       2.63837120       0.00000000
