10
Lattice="16.290000149 0.0 0.0 0.0 16.290000149 0.0 0.0 0.0 29.1751946751" Properties=species:S:1:pos:R:3:initial_magmoms:R:1 pbc="T T T"
Si       1.33509583       1.36385420      -1.36965869       0.00000000
Si      -1.36172998      -1.34269675      -1.37791527       0.00000000
Si      -1.42566823       1.36180166       1.29890884       0.00000000
Si       1.40191741      -1.34113291       1.35906809       0.00000000
Si       0.05724306      -2.72029319       2.67040557       0.00000000
Si       2.70490565      -2.68753400      -0.07311304       0.00000000
Si       2.69601131       2.70979917      -0.00256742       0.00000000
Si      -0.13165578       2.79906837       2.61074230       0.00000000
Si      -2.72591975      -2.69256761      -0.02827076       0.00000000
Si       2.63490752       0.09098291       2.78506408       0.00000000
