10
Lattice="16.290000149 0.0 0.0 0.0 16.290000149 0.0 0.0 0.0 29.1751946751" Properties=species:S:1:pos:R:3:initial_magmoms:R:1 pbc="T T T"
Si      -1.33993396      -1.34873056       1.37245951       0.00000000
Si       1.32284575      -1.37096641      -1.37432672       0.00000000
Si      -1.36019872       1.32514264      -1.39194854       0.00000000
Si       1.34441371       1.32576166       1.40878263       0.00000000
Si       2.69768918       2.67253742       0.01234111       0.00000000
Si       2.62756073      -2.75131587       0.00067103       0.00000000
Si      -2.73183303       0.00521280       2.68581007       0.00000000
Si      -2.73421137       2.68423364      -0.07165428       0.00000000
Si       2.67590945      -0.02335986      -2.74923694       0.00000000
Si      -0.00708615       2.70026300      -2.73529120       0.00000000
