10
Lattice="16.290000149 0.0 0.0 0.0 16.290000149 0.0 0.0 0.0 29.1751946751" Properties=species:S:1:pos:R:3:initial_magmoms:R:1 pbc="T T T"
Si      -1.37026594       1.36093014      -1.31329221       0.00000000
Si      -1.38785914      -1.35915616       1.30386863       0.00000000
Si       1.32403492      -1.35176050      -1.38459639       0.00000000
Si       1.35539317       1.37178417       1.33823700       0.00000000
Si      -0.00565263      -2.70493823       2.63985914       0.00000000
Si      -0.02508660       2.69107544      -2.66110160       0.00000000
Si       2.67390578       0.04326328      -2.69527742       0.00000000
Si      -2.70575273       0.01115865       2.69298717       0.00000000
Si       2.73771371       0.01242927       2.66054435       0.00000000
Si      -0.00464265       2.72921034       2.67758267       0.00000000
