10
Lattice="16.290000149 0.0 0.0 0.0 16.290000149 0.0 0.0 0.0 29.1751946751" Properties=species:S:1:pos:R:3:initial_magmoms:R:1 pbc="T T T"
Si       1.34066701       1.33292926      -1.37359734       0.00000000
Si      -1.43891200       1.37119447       1.23166002       0.00000000
Si       1.34304535      -1.34609158       1.38386701       0.00000000
Si      -1.38334681      -1.34995231      -1.34106700       0.00000000
Si      -0.15890895      -2.70655094       2.54503976       0.00000000
Si       2.70019784       2.64095111       0.01610471       0.00000000
Si      -0.01329264      -2.73712728      -2.65185014       0.00000000
Si      -2.81496090       0.05178591       2.58781059       0.00000000
Si       2.71467965      -0.02616174      -2.69389160       0.00000000
Si      -0.01614339       2.66761784      -2.75095828       0.00000000
