10
Lattice="16.290000149 0.0 0.0 0.0 16.290000149 0.0 0.0 0.0 29.1751946751" Properties=species:S:1:pos:R:3:initial_magmoms:R:1 pbc="T T T"
Si      -1.37842723      -1.36399429      -1.30497728       0.00000000
Si      -1.38517129       1.31457043       1.35833871       0.00000000
Si       1.32931288      -1.36656811       1.37604806       0.00000000
Si       1.32471910       1.38675142      -1.38302093       0.00000000
Si      -2.69565293       0.02753010      -2.64654026       0.00000000
Si      -0.01487277       2.67589316       2.68610182       0.00000000
Si      -0.05108544      -2.72297126      -2.67122247       0.00000000
Si       2.68798034      -0.00135207       2.70739972       0.00000000
Si       2.74989864       0.02660157      -2.65330890       0.00000000
Si       2.69477327      -2.71371854       0.02579087       0.00000000
