10
Lattice="16.290000149 0.0 0.0 0.0 16.290000149 0.0 0.0 0.0 29.1751946751" Properties=species:S:1:pos:R:3:initial_magmoms:R:1 pbc="T T T"
H        0.64438354      -0.84336589       1.07811097       0.00000000
Si      -1.43319421       1.22565961       1.28554660       0.00000000
Si      -1.43537707      -1.33033915      -1.21514686       0.00000000
Si       1.50195430       1.36045936      -1.16117275       0.00000000
Si       0.05250267       2.24020082       2.75527621       0.00000000
Si       0.08451252      -2.64939259      -2.40925840       0.00000000
Si       1.07017156      -3.50812647      -0.42137734       0.00000000
Si       0.15890895       2.70655094      -2.54503976       0.00000000
Si      -2.68205078       0.05869287      -2.58358019       0.00000000
Si       2.79376761      -0.59098492       2.39265772       0.00000000
