10
Lattice="16.290000149 0.0 0.0 0.0 16.290000149 0.0 0.0 0.0 29.1751946751" Properties=species:S:1:pos:R:3:initial_magmoms:R:1 pbc="T T T"
Si      -1.38232054       1.35935490      -1.32230735       0.00000000
Si      -1.37717290      -1.35536059       1.33211021       0.00000000
Si       1.34996860       1.37000204       1.35121997       0.00000000
Si       1.35058762      -1.37673307      -1.34865255       0.00000000
Si      -0.00734679      -2.69750999       2.68473059       0.00000000
Si      -0.03394836       2.73300591      -2.65984415       0.00000000
Si      -2.73771371      -0.01242927      -2.66054435       0.00000000
Si       2.72481203       0.02340873       2.68741471       0.00000000
Si      -2.69700500       0.01312974       2.71629815       0.00000000
Si       2.73039951      -0.03319902      -2.68362193       0.00000000
