10
Lattice="16.290000149 0.0 0.0 0.0 16.290000149 0.0 0.0 0.0 29.1751946751" Properties=species:S:1:pos:R:3:initial_magmoms:R:1 pbc="T T T"
Si       1.72674002       0.94064977       1.27420475       0.00000000
Si      -0.86431483      -1.72795199       1.38245055       0.00000000
Si       0.72852139      -0.63700417      -2.17910258       0.00000000
Si      -1.70476481       1.66861730       0.12932343       0.00000000
H       -2.91252171      -0.95061925      -0.67803882       0.00000000
Si       0.46959183       2.34132914       2.64007066       0.00000000
Si      -2.36188712      -0.49226751       2.66263184       0.00000000
Si      -0.84058030      -2.32334335      -2.63277686       0.00000000
Si       2.97238746      -1.14342769      -1.88936373       0.00000000
Si      -2.36343467       2.09352566      -2.00002524       0.00000000
