10
Lattice="16.290000149 0.0 0.0 0.0 16.290000149 0.0 0.0 0.0 29.1751946751" Properties=species:S:1:pos:R:3:initial_magmoms:R:1 pbc="T T T"
Si      -1.36418977      -1.34987086       1.34964451       0.00000000
Si      -1.38961846       1.34827607      -1.33356897       0.00000000
Si       1.31983210      -1.36849033      -1.38418794       0.00000000
Si       1.36172998       1.34269675       1.37791527       0.00000000
Si      -0.06393825       2.70449840       2.67682411       0.00000000
Si       0.00987174      -2.70321149       2.69307469       0.00000000
Si       2.68965821      -2.71063973      -0.03156756       0.00000000
Si      -0.04535136       2.70365132      -2.69925984       0.00000000
Si       2.69682581       2.70655094       0.00825658       0.00000000
Si       2.69700500      -0.01312974      -2.71629815       0.00000000
