10
Lattice="16.290000149 0.0 0.0 0.0 16.290000149 0.0 0.0 0.0 29.1751946751" Properties=species:S:1:pos:R:3:initial_magmoms:R:1 pbc="T T T"
Si       1.34689957       1.34772058      -1.36840416       0.00000000
Si       1.35087433      -1.35915616       1.35979747       0.00000000
Si      -1.33044305       1.34941474       1.39121916       0.00000000
Si      -1.36416371      -1.33037173      -1.37893640       0.00000000
Si       2.67751565       2.69360039       0.04598011       0.00000000
Si      -2.70514023      -2.68325624       0.00647689       0.00000000
Si      -2.69885229       2.70619256       0.05023969       0.00000000
Si       2.69087345       0.00426798       2.72461308       0.00000000
Si       2.69869265      -0.02148651      -2.72715132       0.00000000
Si      -2.67832689      -0.00423540       2.74888684       0.00000000
