10
Lattice="16.290000149 0.0 0.0 0.0 16.290000149 0.0 0.0 0.0 29.1751946751" Properties=species:S:1:pos:R:3:initial_magmoms:R:1 pbc="T T T"
Si      -1.23160546       1.20357347       1.59376503       0.00000000
Si      -1.94108384      -0.85022398      -1.06475048       0.00000000
Si       1.30251583      -1.52912602       1.31589464       0.00000000
Si       1.48022947       1.30418572      -1.37002338       0.00000000
H       -0.85996540      -2.56111382      -1.85444831       0.00000000
Si      -2.64833048       2.54594132       0.33823387       0.00000000
Si       2.65225149      -0.28562886      -2.65898348       0.00000000
Si       2.82753352       2.52261404       0.10654198       0.00000000
Si      -3.68719266       0.69299290      -0.61568122       0.00000000
Si       2.69271748      -0.24094539       2.74980586       0.00000000
