10
Lattice="16.290000149 0.0 0.0 0.0 16.290000149 0.0 0.0 0.0 29.1751946751" Properties=species:S:1:pos:R:3:initial_magmoms:R:1 pbc="T T T"
Si      -1.34669431       1.34488612      -1.36507818       0.00000000
Si      -1.35547462      -1.37054287       1.34634771       0.00000000
Si       1.35744571       1.34824186       1.36758725       0.00000000
Si       1.34372953      -1.30378645      -1.42345775       0.00000000
Si      -2.76881133      -0.11420919      -2.59095860       0.00000000
Si       0.11334582       2.78218851      -2.57911930       0.00000000
Si      -2.70021413       2.67403610       0.03638147       0.00000000
Si       2.69213429      -2.68832243      -0.06158884       0.00000000
Si       0.00721647      -2.71016732       2.71060899       0.00000000
Si      -2.71049312      -0.01762578       2.71235950       0.00000000
