10
Lattice="16.290000149 0.0 0.0 0.0 16.290000149 0.0 0.0 0.0 29.1751946751" Properties=species:S:1:pos:R:3:initial_magmoms:R:1 pbc="T T T"
Si      -1.52322904      -1.33951042      -1.17526437       0.00000000
Si      -1.40203144       1.16338294       1.48948121       0.00000000
Si       1.39093795      -1.32295978       1.43530288       0.00000000
Si       0.76079188       1.49762116      -1.72369968       0.00000000
H        1.19681002      -2.12247299      -2.23703723       0.00000000
Si      -0.16544124      -2.68794776      -2.50676190       0.00000000
Si      -2.57364083       0.16448013      -2.65648900       0.00000000
Si      -1.42649902       2.25189378      -2.60271912       0.00000000
H       -0.59072428       3.73045890       0.06217234       0.00000000
Si       0.04727358       2.60528253       2.75950661       0.00000000
