10
Lattice="16.290000149 0.0 0.0 0.0 16.290000149 0.0 0.0 0.0 29.1751946751" Properties=species:S:1:pos:R:3:initial_magmoms:R:1 pbc="T T T"
Si      -1.37069763      -1.37190146      -1.33027218       0.00000000
Si       1.34732148       1.35369250      -1.37636898       0.00000000
Si       1.40518356      -1.33821374       1.33388990       0.00000000
Si      -1.39534440       1.33771201       1.34856502       0.00000000
Si      -0.01476689       2.69748719       2.68403038       0.00000000
Si       0.06836099      -2.68904571       2.70410292       0.00000000
Si      -2.70248659      -0.00562820      -2.70261498       0.00000000
Si      -2.70005938       2.71806146      -0.02643273       0.00000000
Si      -0.00112890      -2.71186800      -2.71063816       0.00000000
Si       2.70313819       2.72154752      -0.03897806       0.00000000
