10
Lattice="16.290000149 0.0 0.0 0.0 16.290000149 0.0 0.0 0.0 29.1751946751" Properties=species:S:1:pos:R:3:initial_magmoms:R:1 pbc="T T T"
Si      -1.25447662       1.34090485       1.48377717       0.00000000
Si       1.35389449      -1.38693078       1.39982584       0.00000000
Si      -1.44930502      -1.44189959      -1.27002540       0.00000000
Si       1.51827688       1.37527675      -1.28350434       0.00000000
H       -0.63799786       1.12517637      -2.69733427       0.00000000
Si      -0.04727358      -2.60528253      -2.75950661       0.00000000
Si      -2.58965716      -0.06401644       2.84038901       0.00000000
Si      -2.88956747       2.52346112       0.27296312       0.00000000
Si       3.72140166       0.99210336      -0.47809392       0.00000000
Si       0.13134627       2.61709604       2.86280139       0.00000000
