10
Lattice="16.290000149 0.0 0.0 0.0 16.290000149 0.0 0.0 0.0 29.1751946751" Properties=species:S:1:pos:R:3:initial_magmoms:R:1 pbc="T T T"
H       -1.25467536       0.58331558      -0.71485062       0.00000000
Si      -1.14714181      -2.08741365      -0.05376988       0.00000000
Si       0.93524149       0.53158995      -2.13539085       0.00000000
Si      -0.45379053       1.47687096       1.86067722       0.00000000
Si       2.18729090      -0.75427262       0.87901944       0.00000000
H        0.83577475       1.47856512       2.66489146       0.00000000
H        0.33619302       1.82550954      -2.62182887       0.00000000
Si       0.06375906       3.48243062       0.12603684       0.00000000
Si      -1.82096789       0.08063387       3.16848449       0.00000000
Si       0.05580954      -1.14534665      -3.49658873       0.00000000
