10
Lattice="16.290000149 0.0 0.0 0.0 16.290000149 0.0 0.0 0.0 29.1751946751" Properties=species:S:1:pos:R:3:initial_magmoms:R:1 pbc="T T T"
Si      -1.28956528      -0.00169416      -0.80421424       0.00000000
Si       2.28516122      -0.16452900      -0.95049867       0.00000000
Si       2.15627474       0.25010037       1.41382993       0.00000000
Si       1.43672914       1.92114488      -1.72947637       0.00000000
Si       0.63799786      -1.12517637       2.69733427       0.00000000
H        1.27573507       2.70668126      -0.44888955       0.00000000
Si      -2.65674264      -1.39793125       0.50359304       0.00000000
Si      -0.81130717      -2.56707596       1.42730887       0.00000000
Si      -2.09156109       2.25430796      -0.62898802       0.00000000
Si      -0.83577475      -1.47856512      -2.66489146       0.00000000
