10
Lattice="16.28999089631971 0.0 0.0 0.0 16.28999089631971 0.0 0.0 0.0 34.56954931742767" Properties=species:S:1:pos:R:3:initial_magmoms:R:1 pbc="T T T"
Si      -1.36059764      -1.35194131       1.38281386       0.00000000
Si       1.35373569       1.36019871       1.38485346       0.00000000
Si      -1.30796465       1.43915634      -1.48364983       0.00000000
Si       1.34769210      -1.49022712      -1.44856172       0.00000000
Si      -2.71411745      -2.71348136      -0.01192996       0.00000000
Si       2.70174459       2.72725551       0.01523481       0.00000000
Si      -2.70589100       2.72376945       0.01119363       0.00000000
Si       2.71091586      -2.72137503       0.01948687       0.00000000
Si      -0.00166615      -2.71009176       2.74495857       0.00000000
Si       2.71155117       0.00477297       2.74513142       0.00000000
