10
Lattice="16.28999089631971 0.0 0.0 0.0 16.28999089631971 0.0 0.0 0.0 34.56954931742767" Properties=species:S:1:pos:R:3:initial_magmoms:R:1 pbc="T T T"
Si      -1.35722162       1.35666227      -1.36255955       0.00000000
Si       1.35962688      -1.35750490      -1.36155703       0.00000000
Si      -1.35539714      -1.35965518       1.38385440       0.00000000
Si       1.36692154       1.34947349       1.38254076       0.00000000
Si      -2.71460216      -2.71612348      -0.00276557       0.00000000
Si      -2.71530263       2.71586566      -0.00262729       0.00000000
Si      -2.71359218      -0.00044131      -2.71917313       0.00000000
Si       2.71864130       2.71487197      -0.00359524       0.00000000
Si       0.00171620       2.71459504      -2.71931141       0.00000000
Si       0.00160249      -2.71565107      -2.71941512       0.00000000
