10
Lattice="16.28999089631971 0.0 0.0 0.0 16.28999089631971 0.0 0.0 0.0 34.56954931742767" Properties=species:S:1:pos:R:3:initial_magmoms:R:1 pbc="T T T"
Si      -1.35742941       1.35747828       1.36366577       0.00000000
Si       1.35866745      -1.35778779       1.36335465       0.00000000
Si      -1.36702422      -1.34959392      -1.36654196       0.00000000
Si       1.37883447       1.35040842      -1.38778496       0.00000000
Si       2.71531494       2.71463076       0.00414835       0.00000000
Si       2.71625976      -2.71467963       0.00456318       0.00000000
Si      -2.71503312      -2.71665072       0.00307669       0.00000000
Si      -2.71722087       2.71832859       0.00241987       0.00000000
Si      -2.71463891      -0.00053757       2.72097075       0.00000000
Si       0.00053757      -2.71515204       2.72072876       0.00000000
