10
Lattice="16.28999089631971 0.0 0.0 0.0 16.28999089631971 0.0 0.0 0.0 34.56954931742767" Properties=species:S:1:pos:R:3:initial_magmoms:R:1 pbc="T T T"
Si       1.35742941       1.35705474      -1.35699385       0.00000000
Si      -1.35711990       1.35695700       1.35751239       0.00000000
Si       1.35729909      -1.35819504       1.35740868       0.00000000
Si      -1.35777150      -1.35785295      -1.35733954       0.00000000
Si      -0.00027693       2.71363707       2.71547419       0.00000000
Si       2.71461447       2.71467963      -0.00010371       0.00000000
Si      -2.71469755       2.71471221      -0.00020742       0.00000000
Si       2.71482624      -0.00184077       2.71505935       0.00000000
Si      -0.00185706      -2.71559187       2.71447167       0.00000000
Si      -2.71493701      -0.00244350       2.71512849       0.00000000
