10
Lattice="16.28999089631971 0.0 0.0 0.0 16.28999089631971 0.0 0.0 0.0 34.56954931742767" Properties=species:S:1:pos:R:3:initial_magmoms:R:1 pbc="T T T"
Si      -1.35742941      -1.35705474       1.35699385       0.00000000
Si       1.35718506       1.35762489       1.35689014       0.00000000
Si       1.35754344      -1.35775521      -1.35986312       0.00000000
Si      -1.35845568       1.35721764      -1.36255955       0.00000000
Si       2.71327869       2.71577106       0.00013828       0.00000000
Si      -2.71454931      -0.00009774       2.71450624       0.00000000
Si       0.00021177       2.71505430       2.71457538       0.00000000
Si      -0.00013032      -2.71524978       2.71440253       0.00000000
Si      -2.71520091      -2.71490769      -0.00034570       0.00000000
Si       2.71554300       0.00003258       2.71460995       0.00000000
