10
Lattice="16.28999089631971 0.0 0.0 0.0 16.28999089631971 0.0 0.0 0.0 34.56954931742767" Properties=species:S:1:pos:R:3:initial_magmoms:R:1 pbc="T T T"
Si      -1.53378495       1.20342375       1.42087841       0.00000000
Si       1.01884176       1.86465114      -1.16046585       0.00000000
Si      -1.84976208      -0.95317677      -1.25511733       0.00000000
Si       1.81983735      -1.60500483       0.33836694       0.00000000
Si      -0.52185015      -2.67204870       0.68686276       0.00000000
Si      -0.43666974      -2.28097467      -2.56533855       0.00000000
Si       2.29001562       0.45607113      -2.55448370       0.00000000
Si       2.43620208      -1.07857719       2.74236931       0.00000000
Si      -0.17353737       2.38632210       2.98290437       0.00000000
Si      -2.89589448      -2.53518012       0.14031788       0.00000000
