10
Lattice="16.28999089631971 0.0 0.0 0.0 16.28999089631971 0.0 0.0 0.0 34.56954931742767" Properties=species:S:1:pos:R:3:initial_magmoms:R:1 pbc="T T T"
Si       1.07870751       2.00168262       0.64586325       0.00000000
Si       1.42573338      -1.54269558       1.12313072       0.00000000
Si      -2.28418380      -0.33075216       0.71106146       0.00000000
Si       0.37745559       0.82648944      -2.53778660       0.00000000
Si       0.28413018       3.15731151      -1.18864005       0.00000000
Si       1.60785558      -1.41380910      -2.87629182       0.00000000
Si      -2.52991845      -2.63531475       0.02454439       0.00000000
Si      -3.49802012       1.40269932      -0.56013072       0.00000000
Si      -0.05644485       3.07191933       2.35933849       0.00000000
Si       1.01038725      -3.74363748       0.30524929       0.00000000
