10
Lattice="16.28999089631971 0.0 0.0 0.0 16.28999089631971 0.0 0.0 0.0 34.56954931742767" Properties=species:S:1:pos:R:3:initial_magmoms:R:1 pbc="T T T"
Si      -0.93305862       0.28556370      -2.08713771       0.00000000
Si       1.42664562       1.64542032       0.80287823       0.00000000
Si       1.14251544      -2.08471275       0.02354188       0.00000000
Si      -2.15796888       0.21499542       1.05810536       0.00000000
Si      -2.91143025      -0.54890784      -1.04472693       0.00000000
Si       0.98184717      -1.94096979       2.37454910       0.00000000
Si       1.97319141       0.26033049       2.65031055       0.00000000
Si       3.26063898       1.82355147      -0.65367597       0.00000000
Si      -1.26151389       2.54415591      -2.58099856       0.00000000
Si       0.20209374      -0.78467301      -3.80061295       0.00000000
