10
Lattice="16.28999089631971 0.0 0.0 0.0 16.28999089631971 0.0 0.0 0.0 34.56954931742767" Properties=species:S:1:pos:R:3:initial_magmoms:R:1 pbc="T T T"
Si      -0.40260735      -2.31679312      -0.46001725       0.00000000
Si      -0.44121465       0.31201866       2.33908072       0.00000000
Si      -1.33797915       1.60678044      -1.23178287       0.00000000
Si       2.20232655       0.49845771      -0.95107797       0.00000000
Si      -0.53727678       1.16188425      -3.45398388       0.00000000
Si       2.61767268       2.69939961      -0.13319655       0.00000000
Si       1.53999144      -3.42365301       0.47916879       0.00000000
Si       1.80105498       0.86693751      -3.27678027       0.00000000
Si      -2.77914568      -0.22470426       2.75401926       0.00000000
Si       0.08488719       2.58274692       2.95936249       0.00000000
