10
Lattice="16.28999089631971 0.0 0.0 0.0 16.28999089631971 0.0 0.0 0.0 34.56954931742767" Properties=species:S:1:pos:R:3:initial_magmoms:R:1 pbc="T T T"
Si      -1.34516304       1.27479024       1.41939538       0.00000000
Si       1.35922131       1.29189474      -1.41207496       0.00000000
Si      -1.81240911      -0.90243342      -1.24702148       0.00000000
Si       1.36479249      -1.45937223       1.39436009       0.00000000
Si       2.68089417      -0.30156048      -2.49503584       0.00000000
Si      -2.68053579       2.62503576      -0.02003307       0.00000000
Si      -2.62537785      -2.74048299      -0.02369398       0.00000000
Si       0.01531260       2.61612513       2.78485877       0.00000000
Si       2.72515410       2.72417670       0.03961673       0.00000000
Si      -2.69897607      -0.09873369       2.77600896       0.00000000
