10
Lattice="16.28999089631971 0.0 0.0 0.0 16.28999089631971 0.0 0.0 0.0 34.56954931742767" Properties=species:S:1:pos:R:3:initial_magmoms:R:1 pbc="T T T"
Si       1.33672482       1.34967537       1.37129528       0.00000000
Si      -1.30921101       1.35959598      -1.42929956       0.00000000
Si      -1.37461536      -1.36546527       1.36828773       0.00000000
Si       1.43102763      -1.23683943      -1.48704111       0.00000000
Si      -0.56967759      -2.05535002      -2.58249162       0.00000000
Si      -2.37881241      -0.39868146      -2.68233621       0.00000000
Si       2.71010214       2.71200807      -0.00551039       0.00000000
Si       2.69796609      -0.00663003       2.72901509       0.00000000
Si       2.70187569      -2.72524274      -0.02863397       0.00000000
Si      -2.73649194       2.69869914      -0.01643783       0.00000000
