10
Lattice="16.28999089631971 0.0 0.0 0.0 16.28999089631971 0.0 0.0 0.0 34.56954931742767" Properties=species:S:1:pos:R:3:initial_magmoms:R:1 pbc="T T T"
Si       1.35215145       1.35844591      -1.37773559       0.00000000
Si      -1.36161594      -1.35743464      -1.37690592       0.00000000
Si      -1.35205371       1.41410884       1.37476261       0.00000000
Si       1.41410232      -1.27430838       1.48732112       0.00000000
Si      -0.23286555      -2.32438819       3.00088054       0.00000000
Si       2.70669753       2.71911703       0.00044940       0.00000000
Si       2.52907137       0.32810341       2.86723459       0.00000000
Si       2.71205694      -2.71707493       0.00874610       0.00000000
Si      -2.71127502      -2.72155468      -0.00252358       0.00000000
Si      -2.73416247       2.71108606      -0.00390636       0.00000000
