10
Lattice="16.28999089631971 0.0 0.0 0.0 16.28999089631971 0.0 0.0 0.0 34.56954931742767" Properties=species:S:1:pos:R:3:initial_magmoms:R:1 pbc="T T T"
Si      -1.10053611      -1.34030408       1.60319832       0.00000000
Si       1.32310638      -1.39433801      -1.41800914       0.00000000
Si      -1.40292738       1.33814563      -1.41555470       0.00000000
Si       1.15347861       1.66959012       1.29241789       0.00000000
Si      -2.65305456      -2.68517390      -0.02724082       0.00000000
Si       2.68232769       2.74132551      -0.04072295       0.00000000
Si       2.77710291      -2.65748090       0.05939052       0.00000000
Si       2.67276546      -0.03021796      -2.79239148       0.00000000
Si      -0.04064355       2.68523904      -2.79301373       0.00000000
Si      -0.04163724      -2.74960085      -2.79564102       0.00000000
