10
Lattice="16.28999089631971 0.0 0.0 0.0 16.28999089631971 0.0 0.0 0.0 34.56954931742767" Properties=species:S:1:pos:R:3:initial_magmoms:R:1 pbc="T T T"
Si      -0.95148261       1.72618614      -1.22666657       0.00000000
Si       0.09456345       1.71321930       1.61809780       0.00000000
Si       1.84191030      -0.72580095      -1.33957078       0.00000000
Si      -1.48517559      -2.00054232       0.44159167       0.00000000
Si      -2.12742513       0.11427435      -2.49841186       0.00000000
Si       1.71168804       0.58301910       2.93723797       0.00000000
Si       0.83440638      -2.40160212      -2.60153289       0.00000000
Si       2.94733341      -2.20372749       0.03073235       0.00000000
Si      -0.69444270      -3.47333751      -1.26839204       0.00000000
Si       0.71376264       2.89204515      -2.52779600       0.00000000
