10
Lattice="16.28999089631971 0.0 0.0 0.0 16.28999089631971 0.0 0.0 0.0 34.56954931742767" Properties=species:S:1:pos:R:3:initial_magmoms:R:1 pbc="T T T"
Si      -1.97879517      -0.68453838      -1.12067628       0.00000000
Si       0.03661992       2.39101362       0.11311163       0.00000000
Si       0.14489955      -0.52142661       2.33814734       0.00000000
Si       1.85406264      -0.54011124      -1.50346511       0.00000000
Si      -3.20919516       1.55576016      -0.78217106       0.00000000
Si      -2.16091737      -0.81342486       2.87874626       0.00000000
Si       1.11233007       1.39277871       3.28469670       0.00000000
Si       2.00109618       3.00654756      -1.00210266       0.00000000
Si       3.47118723      -1.67031144      -0.18432494       0.00000000
Si      -0.18015111       3.12670260       2.36435108       0.00000000
