10
Lattice="16.28999089631971 0.0 0.0 0.0 16.28999089631971 0.0 0.0 0.0 34.56954931742767" Properties=species:S:1:pos:R:3:initial_magmoms:R:1 pbc="T T T"
Si       0.96743052       1.91420532       0.94654936       0.00000000
Si       0.87026067      -1.92490785       1.08123240       0.00000000
Si      -2.30581692      -0.29199825       0.54059891       0.00000000
Si      -0.14489955       0.52142661      -2.33814734       0.00000000
Si      -0.63285021      -3.59189613       0.18750534       0.00000000
Si      -0.32505066       3.64812921       0.02620373       0.00000000
Si      -0.10827963       2.91244023      -2.22503572       0.00000000
Si      -2.72116305      -2.49294015      -0.27728251       0.00000000
Si       0.61602264       2.03877495       3.28431644       0.00000000
Si      -2.60682354      -0.06419889       2.93022035       0.00000000
