10
Lattice="16.28999089631971 0.0 0.0 0.0 16.28999089631971 0.0 0.0 0.0 34.56954931742767" Properties=species:S:1:pos:R:3:initial_magmoms:R:1 pbc="T T T"
Si      -1.94474907      -0.73300113       1.41575317       0.00000000
Si       0.57132288       1.93811904       1.56537372       0.00000000
Si       2.09406321      -1.80074547       0.30082439       0.00000000
Si      -1.08820458      -1.89944658      -1.83675032       0.00000000
Si       0.24319341       1.50201945      -2.63153927       0.00000000
Si      -1.54637712       0.09269010      -2.99268756       0.00000000
Si      -0.62946189      -1.97198595       3.04078216       0.00000000
Si       0.79781904      -3.31108911       1.62792044       0.00000000
Si       2.07111060       0.76101993       3.06415465       0.00000000
Si       3.51329688      -0.47276838       1.68340459       0.00000000
