10
Lattice="16.28999089631971 0.0 0.0 0.0 16.28999089631971 0.0 0.0 0.0 34.56954931742767" Properties=species:S:1:pos:R:3:initial_magmoms:R:1 pbc="T T T"
Si      -0.06616998       2.31638913       0.32460825       0.00000000
Si       2.34589032      -0.30087630      -0.21350166       0.00000000
Si      -1.67459408      -0.67531824      -1.62511542       0.00000000
Si      -0.94328548      -0.20650833       2.34976272       0.00000000
Si       2.24997480      -2.60208967       0.25322209       0.00000000
Si      -0.55485369       2.90434410      -1.89714336       0.00000000
Si       2.59340058       0.60924600      -2.42367246       0.00000000
Si      -2.26772180       1.44085050      -2.45385169       0.00000000
Si      -3.28524407      -2.01950388      -0.39160407       0.00000000
Si      -2.06450405       3.02961420       1.49471901       0.00000000
