10
Lattice="16.28999089631971 0.0 0.0 0.0 16.28999089631971 0.0 0.0 0.0 34.56954931742767" Properties=species:S:1:pos:R:3:initial_magmoms:R:1 pbc="T T T"
Si       1.35707103       1.35899325       1.35702842       0.00000000
Si       1.35765747      -1.35770634      -1.35789266       0.00000000
Si      -1.35835794       1.35759231      -1.35771981       0.00000000
Si      -1.35814617      -1.35892809       1.35744325       0.00000000
Si      -0.00042354       2.71096551       2.71402226       0.00000000
Si      -0.00125433      -2.71259451       2.71664955       0.00000000
Si       2.71466334      -2.71466334      -0.00024199       0.00000000
Si       2.71463076       2.71489140      -0.00024199       0.00000000
Si      -2.71554300      -0.00003258      -2.71460995       0.00000000
Si      -0.00226431       2.71573848      -2.71447167       0.00000000
