10
Lattice="16.28999089631971 0.0 0.0 0.0 16.28999089631971 0.0 0.0 0.0 34.56954931742767" Properties=species:S:1:pos:R:3:initial_magmoms:R:1 pbc="T T T"
Si      -0.92730255       1.90568565       1.26465853       0.00000000
Si       1.67565130      -1.00721070       1.51584102       0.00000000
Si       0.94328548       0.20650833      -2.34976272       0.00000000
Si      -1.81872378      -1.76241510      -0.22300829       0.00000000
Si       0.87711550       2.52289746      -2.02515447       0.00000000
Si      -1.12121856       3.23612253      -0.85504371       0.00000000
Si       0.29436193      -2.34843319       2.82149010       0.00000000
Si      -2.36129481       0.58095027       2.78640199       0.00000000
Si       2.45253769      -2.82829423       0.08839439       0.00000000
Si      -3.57315678      -0.81964764       1.29649710       0.00000000
