10
Lattice="16.28999089631971 0.0 0.0 0.0 16.28999089631971 0.0 0.0 0.0 34.56954931742767" Properties=species:S:1:pos:R:3:initial_magmoms:R:1 pbc="T T T"
Si       0.31996818       0.00042354      -2.30008625       0.00000000
Si      -2.32573959       0.31229559       0.24077705       0.00000000
Si       0.38346660      -1.77635934       1.55213906       0.00000000
Si       1.54065933       1.75399317       0.60113023       0.00000000
Si      -0.25016553       2.52771930       1.94007876       0.00000000
Si      -2.36470527       1.49582925       2.25210369       0.00000000
Si       2.70414000      -1.70963550       1.68924197       0.00000000
Si      -0.82797183      -1.94631291      -2.98916146       0.00000000
Si       3.44649159       0.45963864       1.21539689       0.00000000
Si      -2.87228538       1.69738542      -1.60665527       0.00000000
