10
Lattice="16.28999089631971 0.0 0.0 0.0 16.28999089631971 0.0 0.0 0.0 34.56954931742767" Properties=species:S:1:pos:R:3:initial_magmoms:R:1 pbc="T T T"
Si      -1.78957053      -1.40932935      -0.36114828       0.00000000
Si      -1.21498965       1.93556151       0.49548563       0.00000000
Si       1.23391863       0.21893760      -2.08129545       0.00000000
Si      -0.24319341      -1.50201945       2.63153927       0.00000000
Si      -1.50939882      -1.75811454      -2.62504019       0.00000000
Si       0.43779375       3.11916033       1.78423915       0.00000000
Si       0.74528379      -1.84941999      -3.12533099       0.00000000
Si      -1.33139799      -3.40146603       0.79478895       0.00000000
Si       2.02825161       1.68775803       3.04567514       0.00000000
Si      -1.51425324       3.49112619      -1.38133082       0.00000000
