10
Lattice="16.28999089631971 0.0 0.0 0.0 16.28999089631971 0.0 0.0 0.0 34.56954931742767" Properties=species:S:1:pos:R:3:initial_magmoms:R:1 pbc="T T T"
Si      -1.34024346      -1.34415306       1.37438234       0.00000000
Si       1.35749457      -1.35197226      -1.35699385       0.00000000
Si      -1.35692442       1.36102950      -1.35702842       0.00000000
Si       1.36474362       1.35526284       1.37763188       0.00000000
Si      -2.61141732       0.06442695       2.76840020       0.00000000
Si       2.71277370      -2.70930393       0.00615338       0.00000000
Si       0.00042354      -2.71096551      -2.71402226       0.00000000
Si      -2.71357191      -2.71246419       0.00228159       0.00000000
Si      -2.71490769       0.00405621      -2.71405683       0.00000000
Si       2.71505430       0.00392589      -2.71426425       0.00000000
