10
Lattice="16.28999089631971 0.0 0.0 0.0 16.28999089631971 0.0 0.0 0.0 34.56954931742767" Properties=species:S:1:pos:R:3:initial_magmoms:R:1 pbc="T T T"
Si       1.34965908       1.36412004      -1.37438234       0.00000000
Si      -1.36474362      -1.35526284      -1.37763188       0.00000000
Si      -1.32310638       1.39433801       1.41800914       0.00000000
Si       1.45399653      -1.26314289       1.47739965       0.00000000
Si      -2.70498708      -2.69941590      -0.00324954       0.00000000
Si       2.72121192      -2.70539433       0.00473603       0.00000000
Si       2.71127502       2.72155468       0.00252358       0.00000000
Si      -0.00724905      -2.70723510      -2.73462573       0.00000000
Si       2.70800073       0.00594585      -2.73396891       0.00000000
Si      -2.72166804       0.00576666      -2.73466030       0.00000000
