10
Lattice="16.28999089631971 0.0 0.0 0.0 16.28999089631971 0.0 0.0 0.0 34.56954931742767" Properties=species:S:1:pos:R:3:initial_magmoms:R:1 pbc="T T T"
Si      -1.98501795      -1.36671471       0.16285724       0.00000000
Si       1.70204436      -1.75617603      -0.11435613       0.00000000
Si       0.03220533       1.25908668      -2.14704677       0.00000000
Si       1.14223851       1.03645125       2.14590597       0.00000000
Si      -0.52505928       3.26552502      -0.73857883       0.00000000
Si       1.30782636       3.08113851       0.99823086       0.00000000
Si       0.52830099      -3.19981212       1.64402498       0.00000000
Si      -1.87641252      -2.27382336      -2.31726732       0.00000000
Si      -0.99220761      -0.40122270      -3.67305124       0.00000000
Si       3.89402676      -0.91092051       0.50056735       0.00000000
