10
Lattice="16.28999089631971 0.0 0.0 0.0 16.28999089631971 0.0 0.0 0.0 34.56954931742767" Properties=species:S:1:pos:R:3:initial_magmoms:R:1 pbc="T T T"
Si      -1.35637056      -1.35710358      -1.35661358       0.00000000
Si       1.35893783       1.35793277      -1.35675186       0.00000000
Si       1.35722162      -1.35666227       1.36255955       0.00000000
Si      -1.35808101       1.35920339       1.35993226       0.00000000
Si      -2.71349046       2.71415672      -0.00013828       0.00000000
Si      -2.71350675      -2.71485135       0.00117537       0.00000000
Si      -2.71407690       0.00104582      -2.71436796       0.00000000
Si       0.00197109      -2.71475361      -2.71429882       0.00000000
Si       0.00146610       2.71547621      -2.71412597       0.00000000
Si       2.71519344       2.71479203       0.00093338       0.00000000
