10
Lattice="16.28999089631971 0.0 0.0 0.0 16.28999089631971 0.0 0.0 0.0 34.56954931742767" Properties=species:S:1:pos:R:3:initial_magmoms:R:1 pbc="T T T"
Si       1.46274426       1.34355359       1.15234200       0.00000000
Si       1.13823117      -0.97696410      -1.77594245       0.00000000
Si      -0.82883520      -1.91974785       1.03155593       0.00000000
Si      -1.76197527       1.43538032      -0.54692515       0.00000000
Si       2.59460604       2.36643527      -0.64655464       0.00000000
Si      -0.78693732      -1.69198107      -3.05111013       0.00000000
Si      -3.48944832      -0.11965005      -0.86579485       0.00000000
Si       3.14437725      -0.19594101       1.75212402       0.00000000
Si      -0.00987174       2.93925683       2.12675443       0.00000000
Si       2.85017985       0.64973317      -2.21044736       0.00000000
