10
Lattice="16.28999089631971 0.0 0.0 0.0 16.28999089631971 0.0 0.0 0.0 34.56954931742767" Properties=species:S:1:pos:R:3:initial_magmoms:R:1 pbc="T T T"
Si      -1.46274426      -1.34355359      -1.15234200       0.00000000
Si       1.68163299      -1.53949459       0.59978202       0.00000000
Si       1.13186178       1.02288168      -1.79889664       0.00000000
Si      -1.47261600       1.59570324       0.97441243       0.00000000
Si       3.18868835       0.13317075       1.30299618       0.00000000
Si      -0.52636248       3.42652005      -0.19137713       0.00000000
Si       3.05375665       1.72190187      -0.52466234       0.00000000
Si      -3.22471953       0.09182673      -1.69926715       0.00000000
Si       1.38743559      -0.69382042      -3.36278936       0.00000000
Si      -0.43023519       2.77829208      -2.41689682       0.00000000
