10
Lattice="16.28999089631971 0.0 0.0 0.0 16.28999089631971 0.0 0.0 0.0 34.56954931742767" Properties=species:S:1:pos:R:3:initial_magmoms:R:1 pbc="T T T"
Si      -1.35512007       1.35627282      -1.35837663       0.00000000
Si       1.35800454      -1.35883035      -1.35803093       0.00000000
Si       1.35864311       1.35736425       1.37393294       0.00000000
Si      -1.36072383      -1.35374787       1.37915294       0.00000000
Si       0.09574880      -2.59375896       2.82606224       0.00000000
Si      -2.71336398      -0.00047241      -2.71588902       0.00000000
Si      -2.71526991      -2.71441899       0.00096795       0.00000000
Si       0.00131169       2.71419093      -2.71575074       0.00000000
Si       2.71992836       2.71077003      -0.00224702       0.00000000
Si      -2.71500927       2.71577106       0.00010371       0.00000000
