10
Lattice="16.28999089631971 0.0 0.0 0.0 16.28999089631971 0.0 0.0 0.0 34.56954931742767" Properties=species:S:1:pos:R:3:initial_magmoms:R:1 pbc="T T T"
Si       0.16614171      -0.43150581      -2.26164489       0.00000000
Si      -1.25634996       1.75716972       0.92808921       0.00000000
Si       2.19247110       0.88905933       0.27154396       0.00000000
Si      -0.60532011      -2.24668422       0.73930479       0.00000000
Si       0.00013032       1.83104487       2.93965784       0.00000000
Si       0.58746627      -2.29407183       2.79297916       0.00000000
Si      -2.04195150      -0.86262066      -2.95784143       0.00000000
Si       2.04893991       2.44780056       2.05720046       0.00000000
Si       1.35764118      -2.40409449      -2.61926708       0.00000000
Si       3.61815561      -0.94017735       0.86247617       0.00000000
