10
Lattice="16.28999089631971 0.0 0.0 0.0 16.28999089631971 0.0 0.0 0.0 34.56954931742767" Properties=species:S:1:pos:R:3:initial_magmoms:R:1 pbc="T T T"
Si      -1.19149947       1.97258868       0.35762219       0.00000000
Si      -0.87364899      -1.39877343       1.75872680       0.00000000
Si       2.39708979       0.35427492      -0.16627963       0.00000000
Si      -2.10908259      -0.16716798      -1.51992022       0.00000000
Si      -0.01775610       3.41622477      -1.40075892       0.00000000
Si      -1.92950163      -3.13538517       0.47920336       0.00000000
Si       3.11242671      -1.60594965      -1.30769764       0.00000000
Si      -3.39959268       1.54147383      -0.33857436       0.00000000
Si      -1.35764118       2.40409449       2.61926708       0.00000000
Si      -1.96296129       0.15741027       3.35857187       0.00000000
