10
Lattice="16.28999089631971 0.0 0.0 0.0 16.28999089631971 0.0 0.0 0.0 34.56954931742767" Properties=species:S:1:pos:R:3:initial_magmoms:R:1 pbc="T T T"
Si       1.33877314       1.34516304       1.39313633       0.00000000
Si      -1.37556018      -1.36790388       1.39009421       0.00000000
Si      -1.26174195       1.35145098      -1.55244327       0.00000000
Si       1.43184280      -1.31002551      -1.55397125       0.00000000
Si      -2.24687970      -0.56360142      -2.69625147       0.00000000
Si      -0.40785273      -2.23471107      -2.90398001       0.00000000
Si       2.69544833       2.69505715       0.02528073       0.00000000
Si       2.69165276      -2.72556135       0.00750160       0.00000000
Si      -2.72958498       2.70295083      -0.00613610       0.00000000
Si       2.69649089      -0.00750969       2.75099442       0.00000000
