10
Lattice="16.28999089631971 0.0 0.0 0.0 16.28999089631971 0.0 0.0 0.0 34.56954931742767" Properties=species:S:1:pos:R:3:initial_magmoms:R:1 pbc="T T T"
Si       1.35539714       1.35965518      -1.38385440       0.00000000
Si      -1.35920502      -1.35646830      -1.38661997       0.00000000
Si      -1.29795462       1.44276655       1.47857502       0.00000000
Si       1.28546019      -1.49464008       1.44168929       0.00000000
Si       2.69984826      -2.70681156      -0.03170029       0.00000000
Si      -2.70212004      -2.70987408      -0.00653365       0.00000000
Si      -2.71205694       2.71707493      -0.00874610       0.00000000
Si       2.72231868       2.70912867      -0.00131364       0.00000000
Si      -0.00022806      -2.71202436      -2.74610282       0.00000000
Si       2.71502402       0.00215028      -2.74541143       0.00000000
