10
Lattice="16.28999089631971 0.0 0.0 0.0 16.28999089631971 0.0 0.0 0.0 34.56954931742767" Properties=species:S:1:pos:R:3:initial_magmoms:R:1 pbc="T T T"
Si      -0.60297435       0.70825662       2.10314342       0.00000000
Si       0.94071885       1.96913520      -0.80032008       0.00000000
Si       2.02457889      -1.26350127      -0.03242626       0.00000000
Si      -2.19198240      -0.84525552      -0.61492349       0.00000000
Si       0.70907994      -2.66535351      -1.51774234       0.00000000
Si      -0.91996146      -1.31123097      -2.75336243       0.00000000
Si       1.61299249       1.56079377       2.96579243       0.00000000
Si       1.98188931       1.42926831      -2.82675363       0.00000000
Si      -2.75178825       1.94737176       1.64533862       0.00000000
Si       3.42097235      -0.17922258      -1.67890567       0.00000000
