10
Lattice="16.28999089631971 0.0 0.0 0.0 16.28999089631971 0.0 0.0 0.0 34.56954931742767" Properties=species:S:1:pos:R:3:initial_magmoms:R:1 pbc="T T T"
Si      -2.04880959      -0.61675569       0.88245738       0.00000000
Si       1.84867065      -0.32762448       1.42533788       0.00000000
Si       0.14353119      -1.55874123      -1.78565650       0.00000000
Si      -0.73800216       2.19307383      -0.65059928       0.00000000
Si       0.87995322       0.11784186      -3.35915955       0.00000000
Si       2.71036508       1.84985982       1.26448568       0.00000000
Si       2.87850394      -2.06332398       0.22736405       0.00000000
Si      -3.30528987      -0.69063084      -1.12911125       0.00000000
Si      -2.66317065       1.47805686      -1.92576696       0.00000000
Si      -2.70506853       1.25029008       2.15689910       0.00000000
