10
Lattice="16.28999089631971 0.0 0.0 0.0 16.28999089631971 0.0 0.0 0.0 34.56954931742767" Properties=species:S:1:pos:R:3:initial_magmoms:R:1 pbc="T T T"
Si       2.23177887       0.34445205      -0.70293761       0.00000000
Si      -1.40743971       1.58736276      -1.06947874       0.00000000
Si      -0.04121370      -0.02140506       2.40137509       0.00000000
Si      -0.52610184      -2.27072826      -0.62028177       0.00000000
Si       1.01199996      -2.11206366       2.90232270       0.00000000
Si       3.45898602      -1.36567215       0.39461163       0.00000000
Si       0.74995902      -3.57011640       0.99577642       0.00000000
Si      -3.60666206       1.28980962      -0.18259646       0.00000000
Si       3.12618132       2.36099115       0.25432832       0.00000000
Si      -1.17713169       1.32859611      -3.50462830       0.00000000
