10
Lattice="16.28999089631971 0.0 0.0 0.0 16.28999089631971 0.0 0.0 0.0 34.56954931742767" Properties=species:S:1:pos:R:3:initial_magmoms:R:1 pbc="T T T"
Si      -0.57514356      -2.10771423      -0.90122865       0.00000000
Si      -1.89624627       1.14719067      -0.84208012       0.00000000
Si       1.91896037       0.58285620      -1.60095129       0.00000000
Si      -0.58956021       0.33451515       2.50501465       0.00000000
Si       0.40133347      -2.17114749      -3.11478727       0.00000000
Si      -3.71548089       0.80151687       0.67880805       0.00000000
Si      -2.87084439      -2.58351255      -0.14643669       0.00000000
Si       1.05421712       2.14270515      -3.15426572       0.00000000
Si       3.72744359       1.59920559      -0.27019575       0.00000000
Si      -2.05808742       3.53486484      -0.05251117       0.00000000
