10
Lattice="16.28999089631971 0.0 0.0 0.0 16.28999089631971 0.0 0.0 0.0 34.56954931742767" Properties=species:S:1:pos:R:3:initial_magmoms:R:1 pbc="T T T"
Si       1.35771774      -1.35267273       1.35785809       0.00000000
Si       1.35667518       1.34989411      -1.36785561       0.00000000
Si      -1.35590682       1.36117738       1.35761610       0.00000000
Si      -1.33877314      -1.34516304      -1.39313633       0.00000000
Si      -0.00654858       2.58104203      -2.83590419       0.00000000
Si       2.71384395      -2.71226871      -0.00411378       0.00000000
Si       0.00017267      -2.71182888       2.71523220       0.00000000
Si      -2.71433332      -2.71306692      -0.00304212       0.00000000
Si      -2.71434961       0.00281817       2.71526677       0.00000000
Si       2.71500054       0.00281817       2.71543962       0.00000000
