10
Lattice="16.28999089631971 0.0 0.0 0.0 16.28999089631971 0.0 0.0 0.0 34.56954931742767" Properties=species:S:1:pos:R:3:initial_magmoms:R:1 pbc="T T T"
Si      -1.34977311      -1.36098063      -1.37521201       0.00000000
Si       1.35992178       1.35720673      -1.37531572       0.00000000
Si       1.46575791      -1.29956733       1.39000779       0.00000000
Si      -1.41020901       1.26587961       1.49153861       0.00000000
Si      -2.52595183      -0.35230383       2.82350409       0.00000000
Si      -2.70242140       2.70487698       0.00919551       0.00000000
Si       0.05546745       2.62530847       2.78229716       0.00000000
Si      -2.72489183      -2.71106325      -0.02119115       0.00000000
Si       2.71588509       2.72375220       0.00169391       0.00000000
Si      -2.70971607      -0.00210141      -2.73490228       0.00000000
