10
Lattice="16.28999089631971 0.0 0.0 0.0 16.28999089631971 0.0 0.0 0.0 34.56954931742767" Properties=species:S:1:pos:R:3:initial_magmoms:R:1 pbc="T T T"
Si       0.99082459      -1.76308299       1.15275684       0.00000000
Si      -0.03682029       1.80408722       1.58484187       0.00000000
Si       2.21985622       0.38429739      -1.10235440       0.00000000
Si      -2.21596684      -0.85253715      -0.86264902       0.00000000
Si       1.72423297       2.69118035      -1.34562046       0.00000000
Si       1.44404497      -3.22989975      -0.70556490       0.00000000
Si      -1.61299249      -1.56079377      -2.96579243       0.00000000
Si      -2.12197354       2.84939208       1.41140635       0.00000000
Si      -0.67227364       0.40834143      -3.76611252       0.00000000
Si       1.92088585       3.17302551       1.03549686       0.00000000
