10
Lattice="16.2900001489832 0.0 0.0 0.0 16.2900001489832 0.0 0.0 0.0 28.96881123518865" Properties=species:S:1:pos:R:3:initial_magmoms:R:1 pbc="T T T"
Si       0.95844008      -1.08396137      -1.81840125       0.00000000
Si      -1.13088439      -1.58396664       1.32492334       0.00000000
Si       1.54842153       1.23702482       1.32391523       0.00000000
Si      -1.10682406       1.85556916      -1.03323059       0.00000000
H        0.09725130       2.76096736      -1.09293531       0.00000000
H       -0.15539031      -1.19709542      -2.84986474       0.00000000
Si       2.25232058       0.56791143      -2.80000942       0.00000000
Si      -2.37695537      -0.26278246       2.82735018       0.00000000
Si       0.34609327       2.46077524       2.92083543       0.00000000
Si      -2.57702915       2.82519884       0.49067952       0.00000000
