10
Lattice="16.2900001489832 0.0 0.0 0.0 16.2900001489832 0.0 0.0 0.0 28.96881123518865" Properties=species:S:1:pos:R:3:initial_magmoms:R:1 pbc="T T T"
Si      -1.10278414      -1.31567815      -1.63749102       0.00000000
Si       1.80978644       1.04158261      -1.20730418       0.00000000
Si       1.25910298      -1.43721784       1.47908956       0.00000000
Si      -1.74263906       1.23232222       1.31069386       0.00000000
H        2.53431677      -0.71672743       1.98807158       0.00000000
H       -0.98244991      -3.35326395      -0.45605600       0.00000000
Si       0.57583522      -0.44838225       3.58338401       0.00000000
Si      -1.67798405      -0.02272455       3.35166249       0.00000000
Si      -2.13816026       0.21952404      -3.11646471       0.00000000
Si       0.87576670       2.57883734      -2.67813763       0.00000000
