10
Lattice="16.2900001489832 0.0 0.0 0.0 16.2900001489832 0.0 0.0 0.0 28.96881123518865" Properties=species:S:1:pos:R:3:initial_magmoms:R:1 pbc="T T T"
Si      -1.27993789       1.30912957      -1.45889830       0.00000000
Si       1.07165395       1.59057190       1.35211926       0.00000000
Si      -1.26351757      -1.53634249       1.26616880       0.00000000
Si       1.47929491      -1.32512635      -1.29105301       0.00000000
Si       0.31343589      -2.92153008       2.32645626       0.00000000
Si       2.57408066       0.35852661       2.70264524       0.00000000
H       -0.50663529       0.91385272       3.61661124       0.00000000
Si       0.13567941      -2.71280630      -2.67280737       0.00000000
Si       2.59595813       2.79246441       0.02056786       0.00000000
Si      -2.70361874      -0.06480162      -2.69864755       0.00000000
